26
1sa1ma1eda_118.log	Energy: -619044.3204876
S         -1.93861        0.04369        0.09766
O         -2.48533        0.51446        1.36214
O         -0.66427        0.63420       -0.34362
O         -1.88216       -1.44735       -0.01986
O         -2.99000        0.52277       -1.05606
H         -3.87093        0.51667       -0.65923
H          0.91175       -0.95232        1.17562
H          1.20429       -2.70417        1.23447
H          3.33554       -1.32643        1.32542
H          3.30396       -2.42570       -0.05852
H          2.68401        0.45203       -0.15051
H          3.85590       -0.36997       -0.99731
H         -0.43132       -1.82217       -0.46701
H          0.93606       -1.11688       -1.21050
C          1.36348       -1.79636        0.65063
C          2.83907       -1.52664        0.36497
N          0.62455       -1.91151       -0.63319
N          2.92647       -0.44238       -0.60219
H          0.84552       -2.77437       -1.12600
N          1.74591        2.02018        0.64577
H          0.79568        1.65358        0.58132
C          1.92218        3.04978       -0.38127
H          1.20691        3.87969       -0.30876
H          2.93500        3.46044       -0.32566
H          1.79799        2.58958       -1.36559
H          1.85468        2.42361        1.57017
