26
1sa1ma1eda_100.log	Energy: -619043.0210103
S          0.68750       -0.31272       -0.25865
O          0.06398       -1.42066       -0.96300
O          1.32744        0.75455       -1.01051
O         -0.39034        0.33172        0.68788
O          1.74057       -0.90793        0.74480
H         -1.26156       -0.28648        0.71385
H          2.55318       -0.25224        0.83170
H         -4.15240        0.73957        1.26866
H         -4.94922        0.96003       -0.29103
H         -4.38777       -1.31520       -0.27878
H         -3.12093       -0.56621       -1.27468
H         -2.84041       -1.41343        1.52347
H         -2.04842       -1.99248        0.20300
H         -3.35793        2.70702        0.00614
H         -2.10979        1.64566        0.10135
C         -3.97981        0.75748        0.17635
C         -3.53013       -0.63173       -0.26321
N         -3.04644        1.78276       -0.26709
N         -2.46417       -1.15861        0.61417
N          3.72899        0.75159        0.72297
H          3.25320        1.57475        0.36063
C          4.68088        0.24277       -0.27496
H          5.46701        0.96329       -0.52522
H          5.14316       -0.67104        0.10421
H          4.12620       -0.00353       -1.18238
H          4.19813        1.01106        1.58469
