29
1sa1dma1eda_35.log	Energy: -643709.0429913
S          0.21379       -0.57133       -0.03799
O         -0.34826        0.35560       -1.04863
O          0.69463        0.10293        1.17281
O         -0.77178       -1.67121        0.24377
O          1.43805       -1.33215       -0.69299
H          2.29356       -0.76696       -0.58432
H         -4.74871        0.03699        0.18290
H         -3.76244       -0.92190        1.32577
H         -3.55063        1.60811        1.60399
H         -2.01191        0.78765        1.33870
H         -3.03182        2.82005       -0.23012
H         -1.77289        1.81511       -0.62848
H         -3.59587       -1.57659       -1.09461
H         -2.80566       -0.12146       -1.32366
C         -3.73153       -0.21162        0.49675
C         -2.96058        1.06087        0.86303
N         -3.03471       -0.85911       -0.64384
N         -2.74943        1.85654       -0.34297
H         -2.07450       -1.28068       -0.30831
N          3.59054        0.14487       -0.33038
C          3.98355       -0.05784        1.06677
C          3.21453        1.53243       -0.61430
H          4.35098       -0.13262       -0.94372
H          3.11166        0.13560        1.69643
H          4.28592       -1.09767        1.21112
H          4.80771        0.60393        1.37007
H          2.33903        1.78257       -0.00976
H          4.02327        2.24097       -0.38389
H          2.93988        1.62765       -1.66721
