30
1sa1dma1tma_04.log	Energy: -633637.0066770
S          0.21785       -0.91725       -0.20006
O          1.24559       -1.51011       -1.05287
O         -0.82784       -1.80396        0.32351
O          0.95178       -0.33687        1.10067
O         -0.41519        0.29520       -0.85638
H          1.87645       -0.00948        0.81311
H         -1.77435        0.43140       -0.36112
N          3.27334        0.37791        0.02720
C          4.52435        0.40177        0.77419
C          3.03383        1.58820       -0.75522
H          3.24035       -0.42920       -0.59330
H          4.48135        1.19330        1.52893
H          4.65967       -0.55255        1.28841
H          5.40006        0.58643        0.13344
H          2.94688        2.44246       -0.07604
H          3.84138        1.79664       -1.47278
H          2.09055        1.47983       -1.29597
N         -2.79025        0.55086        0.05564
C         -3.29293        1.86221       -0.39840
H         -2.60860        2.63917       -0.05533
H         -3.32697        1.87134       -1.48856
H         -4.29273        2.03906        0.00763
C         -3.60934       -0.57331       -0.45212
H         -3.66290       -0.50415       -1.53941
H         -3.10940       -1.50171       -0.17471
H         -4.61372       -0.51757       -0.02262
C         -2.63690        0.49182        1.52877
H         -2.20208       -0.47542        1.78208
H         -1.95006        1.28005        1.83947
H         -3.61198        0.62678        2.00517
