23
1sa1a1eda_10.log	Energy: -594393.7687034
S          1.55157       -0.11600        0.00891
O          0.87514       -0.60660       -1.22937
O          1.60652        1.35375        0.05199
O          1.07311       -0.77075        1.22450
O          3.08966       -0.62728       -0.11942
H          3.51212       -0.11572       -0.82196
H         -3.54283       -0.11771       -0.64861
H         -2.78115       -1.35607       -1.67709
H         -2.82476       -2.13778        0.61723
H         -1.15590       -1.88206        0.10977
H         -2.42456       -0.69937        2.28999
H         -0.87733       -0.49820        1.76094
H         -1.87484        0.72445       -2.26944
H         -1.55061        1.21611       -0.68521
C         -2.60721       -0.63866       -0.86977
C         -2.08706       -1.36610        0.36922
N         -1.62590        0.37017       -1.34881
N         -1.85845       -0.45429        1.48811
H         -0.65024       -0.03805       -1.39875
N         -1.16558        2.41396        0.43148
H         -1.52949        1.95972        1.26648
H         -1.42054        3.39491        0.44205
H         -0.14527        2.33252        0.45830
