23
1sa1a1eda_43.log	Energy: -594387.5194809
S         -1.14629       -0.79060       -0.08902
O         -0.56013       -1.73262       -1.02295
O         -2.49290       -0.98377        0.41217
O         -0.19158       -0.63953        1.14750
O         -1.06259        0.63728       -0.77795
H          0.80235       -0.78267        0.82672
H         -1.82606        1.23654       -0.43161
H          2.77216        0.94626       -1.50324
H          3.81590        1.80288       -0.38520
H          4.20149       -0.54293       -0.11463
H          3.43703        0.07481        1.35740
H          1.93358       -1.32851       -0.75587
H          2.45480       -2.00635        0.62947
H          0.89567        1.49025       -0.24877
H          1.77530        2.00993        1.04154
C          2.92683        1.16251       -0.43909
C          3.26584       -0.13846        0.29612
N          1.77587        1.90907        0.03273
N          2.17477       -1.12235        0.21325
N         -3.13464        1.95596        0.16330
H         -3.59690        1.15076        0.58163
H         -3.75347        2.35301       -0.53591
H         -2.98152        2.65176        0.88549
