26
1sa1ma1eda_98.log	Energy: -619044.3179061
S          0.72755       -0.69928        0.29037
O         -0.35844       -0.77757        1.25310
O          1.99780       -1.34437        0.56166
O          0.21560       -1.24575       -1.09578
O          0.98428        0.83034        0.01657
H         -0.81813       -1.12076       -1.15531
H          1.95231        0.95615       -0.36684
H         -4.70672        0.64425       -0.53025
H         -3.88348        2.17182       -0.25653
H         -2.69572        0.91878       -1.99721
H         -1.67613        1.10602       -0.57050
H         -2.37248       -1.15816        0.04993
H         -3.04879       -1.33834       -1.44247
H         -3.89454       -0.18612        1.49738
H         -2.83243        1.04481        1.69632
C         -3.78731        1.08717       -0.12789
C         -2.58127        0.61896       -0.95035
N         -3.73076        0.79302        1.29596
N         -2.34337       -0.83222       -0.91577
N          3.44130        0.98180       -0.80067
H          3.58242        0.07519       -1.23936
C          4.26761        1.08514        0.41286
H          5.33880        0.97740        0.21196
H          4.09034        2.05465        0.88306
H          3.95236        0.30285        1.10531
H          3.69300        1.69279       -1.48029
