32
1sa1eda1tma_27.log	Energy: -668368.1047019
S          1.71603        0.88785       -0.06109
O          1.03548        2.08228        0.44816
O          2.27405       -0.03149        0.93031
O          0.89598        0.16364       -1.08338
O          3.01946        1.43482       -0.87034
H          2.77142        2.27122       -1.28563
H         -1.47665        0.50354       -1.11053
H         -2.91915        1.09636       -1.92374
H         -1.95670        2.86090       -0.50123
H         -3.52169        2.36366        0.16976
H         -0.87246        1.73843        1.18847
H         -2.18109        2.25994        2.00923
H         -3.20791       -0.26914        0.61013
H         -4.27379       -0.18749       -0.61841
C         -2.51337        0.82129       -0.94470
C         -2.49136        2.03333       -0.01345
N         -3.28832       -0.30448       -0.40541
N         -1.88572        1.64074        1.26312
N          0.05161       -2.08788        0.03999
C         -0.41901       -1.68866        1.39235
H          0.43477       -1.29785        1.94580
H         -1.16541       -0.89835        1.29058
H         -0.84632       -2.56148        1.89173
C         -1.03546       -2.68140       -0.77699
H         -1.89237       -1.99741       -0.78697
H         -0.66074       -2.83556       -1.79001
H         -1.32342       -3.64038       -0.33822
C          1.24752       -2.96143        0.11239
H          1.56210       -3.20638       -0.90276
H          2.04034       -2.40780        0.61665
H          0.99384       -3.87424        0.65692
H          0.36601       -1.19506       -0.44392
