23
1sa1a1eda_49.log	Energy: -594386.5642621
S          1.70649       -0.32593       -0.09719
O          2.38139        0.72616       -0.85390
O          1.29263        0.06464        1.26742
O          0.60203       -1.01567       -0.81488
O          2.80531       -1.51947        0.07577
H          3.67517       -1.10118        0.11769
H         -2.72541        0.95924        1.29255
H         -1.44649        1.36341        0.11733
H         -3.66007        1.00520       -1.03349
H         -2.47222       -0.20226       -1.52760
H         -4.72874       -0.65656        0.27501
H         -4.21703       -1.56237       -0.98559
H         -0.72727       -0.37221        1.64301
H         -2.02104       -1.35423        1.11646
C         -2.15532        0.58804        0.43519
C         -3.08185        0.14024       -0.68545
N         -1.37701       -0.59582        0.88191
N         -3.90371       -0.98008       -0.21854
H         -0.71131       -0.90448        0.11260
N          0.24126        2.82128       -0.02037
H          0.20770        3.82828       -0.14019
H          0.89563        2.44855       -0.70637
H          0.67549        2.63086        0.87902
