23
1sa1a1eda_11.log	Energy: -594392.5946796
S         -1.71565       -0.03242        0.15711
O         -0.83352       -0.65530        1.17854
O         -3.13462       -0.31043        0.29997
O         -1.34367        1.36138       -0.11779
O         -1.25474       -0.87028       -1.21153
H         -2.04092       -0.95586       -1.76541
H          3.51970       -0.18359        0.61480
H          2.74646       -1.35819        1.70714
H          2.74709       -2.22013       -0.56928
H          1.09501       -1.94455       -0.01604
H          2.27305       -0.87011       -2.28837
H          0.77270       -0.56904       -1.69459
H          1.86393        0.73190        2.24330
H          1.61646        1.21774        0.64442
C          2.57588       -0.67153        0.87312
C          2.01765       -1.44048       -0.32367
N          1.62548        0.38067        1.31883
N          1.76467       -0.56570       -1.46831
H          0.63527        0.00264        1.34610
N          1.38419        2.40105       -0.52944
H          0.36561        2.31661       -0.57758
H          1.76471        1.92734       -1.34473
H          1.64198        3.38090       -0.55129
