24
1sa1ma1dma_16.log	Energy: -584313.5170633
S         -0.28160       -0.60583       -0.12054
O          0.63787       -1.00198       -1.17232
O         -1.38230       -1.47678        0.25331
O          0.53256       -0.28790        1.17847
O         -0.87548        0.79809       -0.54112
H          1.50765        0.09134        0.93282
H         -1.78621        0.93503       -0.06293
N          2.85221        0.57944        0.54525
C          2.68890        1.56297       -0.53410
C          3.65044       -0.58411        0.13771
H          3.29081        1.02751        1.34526
H          2.16324        1.08142       -1.36159
H          2.07696        2.39374       -0.17689
H          3.65337        1.94602       -0.89166
H          3.11292       -1.10425       -0.65827
H          4.64632       -0.29488       -0.22204
H          3.75522       -1.26492        0.98513
N         -3.21241        0.88740        0.62656
H         -3.06436        0.22296        1.38214
C         -4.15817        0.32810       -0.35078
H         -5.14426        0.11680        0.07740
H         -4.27418        1.03186       -1.17797
H         -3.73285       -0.59792       -0.74220
H         -3.56602        1.74740        1.03306
