26
1sa1ma1eda_43.log	Energy: -619047.2440047
S         -0.76962       -1.03303       -0.15393
O         -2.11695       -1.54272        0.02937
O          0.27160       -1.88797       -0.68898
O         -0.83758        0.24034       -1.09540
O         -0.30922       -0.44229        1.22240
H         -1.74964        0.71123       -0.94570
H          0.74834       -0.28693        1.26765
H          4.05537       -0.51515        0.41724
H          2.62631       -1.42650       -0.13720
H          3.24645        0.28981       -1.78982
H          1.65449        0.61296       -1.10189
H          4.11486        2.06570       -0.47110
H          2.64977        2.65487       -0.89416
H          2.53709       -0.61508        2.22180
H          2.41929        0.90869        1.60346
C          2.97846       -0.45191        0.20713
C          2.72358        0.59285       -0.87268
N          2.22585       -0.07677        1.41872
N          3.11545        1.91698       -0.38025
N         -3.19559        1.20769       -0.50764
H         -3.72124        1.78669       -1.15412
C         -3.11446        1.82702        0.82283
H         -4.09468        1.98629        1.28589
H         -2.51721        1.18115        1.47016
H         -2.60323        2.78871        0.73842
H         -3.66040        0.30412       -0.44648
