26
1sa1ma1eda_91.log	Energy: -619046.9495302
S         -1.85729       -0.38467       -0.10812
O         -1.56306        0.09015        1.25009
O         -2.02261        0.66309       -1.12479
O         -0.91904       -1.45877       -0.53767
O         -3.31520       -1.09709        0.03908
H         -3.68192       -1.18982       -0.85000
H          3.12041       -0.33500        1.64722
H          2.41104       -1.95829        1.57900
H          4.09829       -1.85190       -0.13543
H          2.52209       -1.87197       -0.92736
H          4.27235        0.45332       -0.66823
H          3.53084       -0.13817       -2.00124
H          0.66523       -0.27770        1.71853
H          1.16296        0.53673        0.33344
C          2.51885       -1.01509        1.03646
C          3.18832       -1.25977       -0.31066
N          1.18318       -0.42148        0.84980
N          3.42830        0.00178       -1.00344
H          0.54259       -1.02352        0.27981
N          0.66876        1.94207       -0.42323
H          1.40850        2.31009       -1.01194
C          0.16798        2.94769        0.52089
H         -0.21023        3.85304        0.03184
H         -0.64603        2.49789        1.09407
H          0.96670        3.23468        1.21186
H         -0.09943        1.64279       -1.02738
