29
1sa1dma1eda_101.log	Energy: -643703.5102717
S          1.42355        1.03095       -0.01597
O          0.90833        1.37543       -1.34038
O          2.30051       -0.13896        0.07240
O          2.36892        2.27394        0.43971
O          0.33975        0.96510        1.01895
H          2.02012        3.06976        0.01716
H          0.04254       -0.58206        1.34013
H         -1.17220       -3.23918        0.67720
H         -1.77576       -1.59156        0.23085
H         -0.51391       -2.85394       -1.64036
H          0.11020       -1.25140       -1.26931
H          1.51879       -3.67304       -1.02780
H          2.03727       -2.14193       -0.65652
H         -0.48255       -1.80325        2.39115
H          0.85164       -2.06551        1.40350
C         -0.89504       -2.22673        0.37159
C         -0.00268       -2.26558       -0.87261
N         -0.08347       -1.63235        1.47205
N          1.30010       -2.82764       -0.51927
N         -2.48910        0.57295        0.03950
C         -3.67573        1.09993        0.69161
C         -2.52519        0.72971       -1.40797
H         -1.65509        1.03448        0.39686
H         -4.55439        0.51982        0.38604
H         -3.57404        1.00889        1.77703
H         -3.87526        2.15873        0.45135
H         -3.27529        0.05398       -1.83709
H         -2.77425        1.75634       -1.72558
H         -1.54537        0.48601       -1.82616
