29
1sa1dma1eda_36.log	Energy: -643707.0792318
S         -0.30179       -1.21978       -0.28047
O         -1.54044       -1.97348       -0.18277
O          0.80610       -1.73016       -1.06459
O         -0.63406        0.22163       -0.83098
O          0.17835       -0.94734        1.19011
H         -1.61837        0.47556       -0.52387
H          1.16926       -0.57479        1.22291
H          4.42731        0.00329        0.25541
H          3.17045       -1.08321       -0.39131
H          3.36789        0.92937       -1.79006
H          1.78194        0.84106       -1.02361
H          3.94918        2.64995       -0.25809
H          2.37440        2.98544       -0.54363
H          3.06406       -0.62605        2.06808
H          2.60591        0.90515        1.66987
C          3.34796       -0.11620        0.08461
C          2.84537        0.99755       -0.82632
N          2.60374       -0.06652        1.35627
N          3.00490        2.29292       -0.15863
N         -3.03177        0.64132       -0.00591
C         -3.84514        1.63524       -0.70342
C         -2.96091        0.85447        1.44214
H         -3.38719       -0.29616       -0.18325
H         -3.38038        2.61902       -0.59167
H         -3.88495        1.39302       -1.76753
H         -4.86904        1.68916       -0.30907
H         -2.46605        1.81028        1.63648
H         -3.95451        0.87173        1.90925
H         -2.36257        0.05811        1.88925
