29
1sa1dma1eda_103.log	Energy: -643703.9824035
S          1.86718        0.17125       -0.04807
O          1.37015        1.13277       -1.03960
O          1.10602        0.09070        1.20109
O          2.10853       -1.18341       -0.63062
O          3.32894        0.71685        0.41093
H          3.77596        1.05419       -0.37672
H         -0.72643       -1.11035       -1.22726
H         -0.99373       -2.83070       -1.57221
H         -3.11524       -1.55734       -0.97091
H         -2.81106       -2.91572        0.12016
H         -2.13424       -0.10453        0.67616
H         -3.17103       -1.08617        1.54380
H          0.91135       -2.10715       -0.04566
H         -0.30386       -1.76264        1.07154
C         -1.04767       -2.06301       -0.79893
C         -2.44011       -1.92965       -0.18631
N         -0.06535       -2.37745        0.27273
N         -2.32952       -1.07105        0.98153
H         -0.11241       -3.34708        0.57686
N         -1.54691        1.60119       -0.15212
C         -1.39629        2.35466        1.08780
C         -2.45924        2.23466       -1.09099
H         -0.62485        1.50634       -0.57678
H         -2.34518        2.35308        1.63862
H         -0.63089        1.87307        1.70032
H         -1.10710        3.40460        0.91868
H         -3.47577        2.22739       -0.67978
H         -2.19673        3.28221       -1.31484
H         -2.47048        1.67658       -2.03183
