32
1sa1eda1tma_03.log	Energy: -668371.3985619
S          0.02253       -0.64471       -0.27292
O         -1.01769       -1.48901        0.31312
O          1.02425       -1.31958       -1.10812
O         -0.67813        0.40351       -1.24629
O          0.70676        0.19954        0.78572
H         -1.43019        0.88909       -0.74594
H          2.12499        0.26692        0.48293
H         -4.76570        1.66632        0.21426
H         -4.09963        1.37269       -1.41024
H         -5.08759       -0.67019       -0.32390
H         -3.39338       -0.86922       -0.79544
H         -4.37784       -1.28985        1.71358
H         -2.79468       -1.09185        1.31503
H         -2.57285        2.63429        0.02231
H         -2.51808        1.35814        1.05178
C         -3.96861        1.15621       -0.34460
C         -4.06418       -0.34981       -0.10040
N         -2.63866        1.62270        0.07341
N         -3.71434       -0.65728        1.28714
N          3.20348        0.33418        0.25637
C          3.30975        0.84142       -1.13140
H          2.77944        0.14634       -1.78297
H          2.82585        1.81762       -1.18396
H          4.36344        0.92723       -1.41145
C          3.78899        1.26805        1.23796
H          3.29121        2.23415        1.14599
H          3.62408        0.87452        2.24170
H          4.86074        1.38226        1.05330
C          3.75745       -1.03348        0.38144
H          3.60357       -1.37998        1.40426
H          3.20539       -1.67959       -0.30167
H          4.82536       -1.02069        0.14535
