29
1sa1dma1eda_67.log	Energy: -643707.6948562
S         -0.22228        0.24946        0.73776
O         -1.24166        0.43172        1.76757
O          1.02625        1.01375        0.88562
O          0.08480       -1.21556        0.51455
O         -0.83930        0.75989       -0.64898
H         -1.83566        0.52608       -0.64452
H          2.82078       -0.48884        1.15739
H          4.04340       -1.64365        0.56674
H          4.62241        0.89451        0.43999
H          4.89719       -0.03526       -1.04240
H          2.45948        1.54161       -0.54973
H          3.62709        1.83236       -1.70065
H          1.35798       -1.39154       -0.19428
H          2.26967       -0.60147       -1.40551
C          3.36861       -0.83558        0.28083
C          4.12176        0.33796       -0.36314
N          2.34649       -1.34166       -0.68112
N          3.17274        1.11892       -1.14590
H          2.59605       -2.22613       -1.11313
N         -3.37012        0.04960       -0.29365
C         -3.44483       -1.40320       -0.43247
C         -4.48291        0.75368       -0.91867
H         -3.30728        0.28502        0.69542
H         -3.38252       -1.66458       -1.49377
H         -2.59363       -1.85398        0.08345
H         -4.37829       -1.82049       -0.02641
H         -4.45880        0.58123       -1.99927
H         -5.46199        0.42341       -0.53972
H         -4.37968        1.82690       -0.74243
