26
1sa1ma1eda_77.log	Energy: -619047.4686192
S          0.73918       -0.26456        0.01847
O          0.12044       -1.54017        0.42595
O         -0.27211        0.56802       -0.73339
O          1.39786        0.49798        1.08230
O          1.85706       -0.64903       -1.04890
H          2.65605       -0.02864       -0.93105
H         -3.64226       -1.15461        1.16520
H         -2.10700       -0.31822        1.49795
H         -4.01655        1.30974        1.48468
H         -2.86210        1.63800        0.18803
H         -5.50792        0.43130       -0.13186
H         -4.80706        1.62668       -0.99952
H         -1.89359       -1.78722       -0.37846
H         -3.10141       -0.90254       -1.20177
C         -2.93322       -0.41007        0.79091
C         -3.61662        0.92660        0.53721
N         -2.36809       -0.88855       -0.49135
N         -4.62594        0.75845       -0.51093
H         -1.54870       -0.21899       -0.76275
N          3.87872        0.95300       -0.39792
H          4.39937        1.53972       -1.04051
C          4.77029        0.15033        0.44549
H          5.45532        0.75250        1.05503
H          4.15393       -0.45785        1.11091
H          5.35839       -0.52095       -0.18508
H          3.29509        1.54828        0.18577
