29
1sa1dma1eda_48.log	Energy: -643708.3083785
S          0.18438       -0.87016       -0.17438
O          0.41433        0.37542       -0.93721
O         -0.32477       -0.54969        1.21275
O         -0.70138       -1.83943       -0.82922
O          1.58263       -1.57921        0.01475
H          2.31416       -0.87241        0.18462
H         -4.49069        0.63182        0.49832
H         -3.41056        0.97502        1.87818
H         -3.10172        2.59536       -0.05490
H         -1.62597        1.71403        0.36351
H         -3.01147        1.58122       -2.10614
H         -1.56148        0.89599       -1.67420
H         -3.41880       -1.41204        1.15853
H         -2.76269       -0.90880       -0.29515
C         -3.44928        0.67220        0.82916
C         -2.62732        1.60807       -0.06607
N         -2.86792       -0.68662        0.70801
N         -2.53254        1.03702       -1.40246
H         -1.84478       -0.69804        1.07450
N          3.40549        0.28461        0.38575
C          2.83256        1.27639        1.29952
C          3.68726        0.83530       -0.94238
H          4.25753       -0.09497        0.78741
H          1.87893        1.61347        0.88572
H          2.63657        0.80883        2.26681
H          3.49188        2.14522        1.43985
H          2.73686        1.11648       -1.40260
H          4.34900        1.71266       -0.90101
H          4.15220        0.06516       -1.56228
