26
1sa1ma1eda_78.log	Energy: -619047.2826498
S         -1.96095       -0.22271        0.10502
O         -2.13831       -1.61516        0.49801
O         -1.44380        0.02143       -1.25307
O         -3.45839        0.42954        0.05333
O         -1.21008        0.59199        1.10717
H         -3.98223       -0.00611        0.73825
H         -0.00874        1.34626        0.29851
H          3.63510       -2.06044       -0.14563
H          3.04621       -1.84223        1.50338
H          1.25238       -2.58564       -0.02405
H          0.89193       -1.03407        0.73014
H          1.94806       -1.31297       -2.00100
H          0.40986       -0.91534       -1.57993
H          4.31738        0.03837        1.04145
H          3.61739        0.29882       -0.40650
C          2.99232       -1.42963        0.49175
C          1.55129       -1.53019        0.01107
N          3.44089       -0.03456        0.53619
N          1.38727       -0.85674       -1.28661
N          0.68324        1.72582       -0.40909
H          1.17054        0.87643       -0.80329
C          1.60609        2.71757        0.17306
H          2.25487        3.12228       -0.60530
H          1.03359        3.52409        0.63181
H          2.21171        2.20393        0.91959
H          0.10385        2.09944       -1.15996
