29
1sa1dma1eda_106.log	Energy: -643702.1887995
S          2.24212        0.06349        0.14622
O          3.09925        0.10897        1.31957
O          2.31875       -1.16918       -0.66192
O          0.81717        0.44834        0.37983
O          2.74295        1.28038       -0.83056
H          3.70289        1.34097       -0.74017
H         -1.16214       -3.37962       -0.27537
H         -0.14138       -2.54468        0.92827
H         -2.67676       -2.45331        1.42958
H         -1.86230       -0.88931        1.36237
H         -3.94639       -1.74741       -0.32973
H         -3.14298       -0.28132       -0.29766
H         -1.18166       -1.33032       -1.52562
H         -0.07462       -0.61330       -0.42694
C         -0.92676       -2.41516        0.18129
C         -2.17764       -1.74790        0.75819
N         -0.41058       -1.51678       -0.87639
N         -3.03966       -1.30064       -0.33365
H          0.43689       -1.87019       -1.33015
N         -2.61110        1.69184       -0.07010
C         -1.74768        2.11395       -1.17292
C         -2.05605        2.05928        1.23372
H         -3.51641        2.14020       -0.17653
H         -0.76153        1.65759       -1.04826
H         -2.17758        1.78474       -2.12383
H         -1.59995        3.20455       -1.21426
H         -1.08438        1.57299        1.35921
H         -1.90400        3.14436        1.34697
H         -2.72839        1.71816        2.02650
