23
1sa1a1eda_61.log	Energy: -594387.6528662
S          1.85119       -0.16602        0.04089
O          3.25328       -0.52207        0.18257
O          1.58202        0.96594       -0.88680
O          1.14019       -1.46916       -0.67667
O          1.06671       -0.02668        1.28766
H          1.82995       -1.91768       -1.18233
H          0.04520        1.54465        1.28608
H         -2.71399       -0.55349       -1.79109
H         -1.05902       -0.00799       -1.45940
H         -1.57709       -2.05162       -0.19934
H         -1.23618       -0.71804        0.88233
H         -3.89992       -1.79839        0.30656
H         -3.18581       -1.56150        1.75426
H         -2.90895        1.72494       -1.32874
H         -3.34132        0.98419        0.07235
C         -2.05400       -0.13065       -1.02017
C         -1.96794       -1.09212        0.16025
N         -2.55543        1.17668       -0.55050
N         -3.27547       -1.18335        0.81861
N         -0.27237        2.23190        0.58031
H         -1.23307        1.93087        0.20358
H          0.44073        2.07458       -0.16909
H         -0.26259        3.18154        0.93718
