26
1sa1ma1eda_08.log	Energy: -619050.1403047
S         -1.68677       -0.87102       -0.14107
O         -2.05555        0.41538       -0.74808
O         -2.76156       -1.83111        0.04798
O         -0.42728       -1.41843       -0.70648
O         -1.19048       -0.47328        1.40592
H         -1.95090       -0.61277        1.98415
H          2.59642        1.10424        0.90916
H          1.13349        0.16285        1.30857
H          3.19151       -1.22937        1.62157
H          2.12708       -1.86881        0.36255
H          4.67181       -0.49273       -0.06879
H          4.10405       -1.85885       -0.76525
H          0.95045        1.41729       -0.81210
H          2.21838        0.38147       -1.40199
C          1.98220        0.24358        0.62631
C          2.79940       -1.04303        0.61372
N          1.44884        0.47817       -0.73518
N          3.83477       -0.94673       -0.41765
H          0.72379       -0.26664       -0.92120
N         -0.22924        2.68371       -0.68334
H         -0.18236        3.52546       -1.24766
C         -0.44614        3.01048        0.73210
H         -1.31376        3.65932        0.90016
H         -0.61556        2.07744        1.27580
H          0.44104        3.50203        1.14279
H         -1.02171        2.12260       -1.00503
