29
1sa1dma1eda_89.log	Energy: -643707.6139452
S         -0.83295       -1.40794       -0.19819
O          0.17255       -2.44646       -0.39709
O         -2.22313       -1.79497       -0.01404
O         -0.44953       -0.62902        1.17821
O         -0.68972       -0.30618       -1.23682
H          0.55663       -0.53459        1.19105
H         -1.29509        0.92727       -0.71138
H          3.37380       -0.18479       -1.31419
H          3.90018        1.45677       -0.93551
H          4.22109        0.10156        0.98101
H          2.93333        1.27173        1.33003
H          2.28613       -1.46910        0.45925
H          2.47462       -1.06761        2.02842
H          1.90865        1.66359       -2.07121
H          1.10814        0.57598       -1.17355
C          3.11559        0.71906       -0.73612
C          3.18319        0.37872        0.74689
N          1.83140        1.29626       -1.12789
N          2.24283       -0.68885        1.11496
N         -1.75817        1.82828       -0.28043
C         -0.80044        2.47818        0.64718
C         -3.03028        1.41636        0.36109
H         -1.95193        2.45081       -1.06309
H         -0.65995        1.80227        1.49000
H          0.15683        2.59888        0.13358
H         -1.20512        3.43498        0.98493
H         -2.79195        0.68614        1.13453
H         -3.52883        2.28864        0.78897
H         -3.66160        0.93400       -0.38465
