18
1sa1a1ma_00.log	Energy: -534998.1243913
S          1.20856        0.11550       -0.06048
O          0.54465       -0.59078       -1.19010
O          2.22454        1.08746       -0.43478
O          0.20837        0.58436        0.92243
O          2.00720       -1.10852        0.68024
H          2.79979       -0.72663        1.07900
N         -2.04335       -0.72068       -0.67812
H         -2.62042       -1.05012       -1.44781
C         -2.17498       -1.57099        0.52663
H         -1.88428       -2.59346        0.28539
H         -1.49589       -1.16846        1.27872
H         -3.20343       -1.54807        0.88926
H         -1.01894       -0.70195       -0.97951
N         -2.25185        1.94105        0.16265
H         -2.19047        2.68092       -0.52978
H         -1.31842        1.81744        0.56814
H         -2.87688        2.26158        0.89489
H         -2.28996        0.28390       -0.44454
