32
1sa1eda1tma_43.log	Energy: -668364.7582943
S          2.18063       -0.76086       -0.18417
O          3.27199       -1.54064       -0.74226
O          0.80958       -1.10513       -0.58196
O          2.17144       -1.09569        1.43068
O          2.39973        0.71814       -0.24992
H          3.07749       -1.32259        1.67670
H          1.04636        1.48530       -0.16101
H         -4.50729       -1.65105        0.31290
H         -4.37292       -0.93151       -1.29820
H         -2.69320       -2.69808       -0.97132
H         -1.92916       -1.13442       -1.23820
H         -2.09033       -2.52420        1.31659
H         -0.78576       -1.89133        0.53766
H         -4.56469        0.74833        0.45554
H         -3.14951        0.21774        1.09081
C         -3.87096       -1.01701       -0.32824
C         -2.52470       -1.70761       -0.52286
N         -3.67204        0.32461        0.22474
N         -1.77607       -1.75652        0.73242
N          0.10155        1.97235       -0.03012
C         -0.73688        1.62740       -1.20809
H         -0.37302        2.18491       -2.07203
H         -0.61667        0.55905       -1.38329
H         -1.78446        1.85280       -0.99538
C         -0.46599        1.42217        1.22739
H         -0.71598        0.37026        1.07670
H          0.28472        1.51477        2.01335
H         -1.36675        1.98482        1.48376
C          0.36073        3.42351        0.07497
H          0.98364        3.60970        0.95065
H          0.88697        3.75648       -0.82021
H         -0.58863        3.95565        0.17094
