21
1sa1a1dma_01.log	Energy: -559660.4388889
S          1.50635        0.01090       -0.12930
O          2.60032        0.63778       -0.85496
O          0.74312        0.85342        0.80713
O          0.58534       -0.78794       -0.99347
O          2.19746       -1.08894        0.87187
H          2.99294       -1.41389        0.43053
N         -1.89060       -0.40229       -0.09558
C         -2.92924       -0.94836       -0.98479
C         -1.90531       -0.94498        1.27827
H         -0.92728       -0.58754       -0.50452
H         -3.91783       -0.74407       -0.56854
H         -2.83729       -0.47812       -1.96422
H         -2.78920       -2.02565       -1.08853
H         -2.86457       -0.72537        1.75170
H         -1.74729       -2.02410        1.23958
H         -1.08753       -0.47557        1.82637
H         -1.95721        0.65012       -0.04602
N         -1.62912        2.39698        0.11113
H         -2.05628        2.96113        0.83834
H         -1.61864        2.95356       -0.73768
H         -0.65611        2.21761        0.37749
