26
1sa1ma1eda_85.log	Energy: -619046.7523792
S         -1.94449       -0.56620       -0.00861
O         -0.87302       -1.49125       -0.47372
O         -3.28817       -1.11678       -0.06724
O         -1.54153        0.14825        1.21056
O         -1.93531        0.65778       -1.13991
H         -2.56738        0.41160       -1.82700
H          3.14174       -0.34284        1.63347
H          2.38088       -1.94340        1.57919
H          4.04419       -1.87932       -0.16607
H          2.44968       -1.87461       -0.92150
H          4.24131        0.42571       -0.70947
H          3.48411       -0.17267       -2.02971
H          0.68582       -0.22338        1.74851
H          1.19074        0.58581        0.37000
C          2.50775       -1.00397        1.03450
C          3.14182       -1.27127       -0.32511
N          1.18749       -0.37066        0.87174
N          3.38904       -0.01912       -1.03306
H          0.52071       -0.95299        0.30190
N          0.69276        2.01322       -0.39205
H          1.43469        2.41823       -0.95275
C          0.10183        2.99114        0.52871
H         -0.29918        3.87882        0.02481
H         -0.71134        2.49898        1.06713
H          0.85590        3.31602        1.25192
H         -0.02925        1.66989       -1.02511
