30
1sa1dma1tma_02.log	Energy: -633636.8977727
S          0.29220       -0.37882        0.36632
O         -0.18653        0.97240        0.72540
O          1.29460       -0.94498        1.26482
O         -0.88308       -1.29028        0.12451
O          0.94947       -0.27115       -1.08717
H          1.92668        0.02236       -0.98902
N          3.48788        0.41489       -0.73173
C          4.17687       -0.83004       -0.38305
C          3.53517        1.40349        0.34945
H          3.90360        0.81059       -1.56962
H          3.64809       -1.29019        0.45532
H          4.13748       -1.51778       -1.23129
H          5.22749       -0.66364       -0.10342
H          3.01700        0.98989        1.21797
H          4.56586        1.66089        0.63456
H          3.00872        2.30887        0.03912
N         -3.00010        0.09843       -0.16495
C         -3.29079        0.74012        1.13689
H         -3.46123       -0.03948        1.88063
H         -2.41352        1.32148        1.42309
H         -4.17819        1.37322        1.04602
C         -2.69221        1.10072       -1.21083
H         -1.85056        1.69989       -0.86179
H         -2.40134        0.57590       -2.12179
H         -3.57330        1.72168       -1.39667
C         -4.06355       -0.83521       -0.58321
H         -3.76245       -1.31859       -1.51340
H         -4.19003       -1.59559        0.18853
H         -5.00204       -0.29343       -0.73050
H         -2.08045       -0.50062       -0.02819
