26
1sa1ma1eda_79.log	Energy: -619047.7045721
S          0.67724       -0.88660        0.25733
O         -0.03205        0.17863        0.99835
O          1.94737       -1.31207        0.83711
O         -0.26113       -2.01102       -0.06163
O          0.99702       -0.27277       -1.19826
H          1.90405        0.18043       -1.15074
H         -1.43903        0.29141       -1.24694
H         -3.00641       -0.11690       -1.96513
H         -2.74270        2.28313       -1.02301
H         -4.18412        1.41317       -0.47798
H         -1.69724        1.52219        1.10281
H         -3.14617        2.25144        1.47468
H         -1.67069       -1.52774       -0.05568
H         -2.68978       -0.50783        0.86884
C         -2.50181        0.15771       -1.03790
C         -3.08944        1.43229       -0.42090
N         -2.60618       -0.96167       -0.05851
N         -2.70933        1.48226        0.98426
H         -3.41063       -1.56133       -0.21771
N          3.41311        0.76348       -0.70160
H          3.69077       -0.07088       -0.18862
C          3.25339        1.88955        0.22550
H          4.17810        2.15797        0.75099
H          2.89694        2.76375       -0.32545
H          2.49531        1.62268        0.96539
H          4.12015        0.95622       -1.40258
