29
1sa1dma1eda_55.log	Energy: -643708.0172706
S          2.03799       -0.48955        0.01385
O          2.92021        0.61624       -0.35345
O          1.11378       -0.24430        1.12822
O          1.33446       -1.09523       -1.15589
O          3.01346       -1.67184        0.58315
H          3.82494       -1.64680        0.05973
H         -1.53481       -2.31372        0.26724
H         -1.10810       -0.91751        1.26043
H         -3.53683       -1.50511        1.53551
H         -3.35679        0.09158        0.80357
H         -4.05955       -2.35583       -0.64524
H         -4.86625       -0.93612       -0.59961
H         -0.26179       -0.80564       -1.02444
H         -1.89591       -0.71650       -1.54996
C         -1.72238       -1.24704        0.42162
C         -3.20580       -0.97958        0.62973
N         -1.25190       -0.52324       -0.78056
N         -3.94179       -1.34975       -0.58051
H         -1.23862        0.52659       -0.59352
N         -1.08055        2.21840       -0.18504
C          0.08686        2.71643       -0.92458
C         -0.89866        2.32295        1.26740
H         -1.89403        2.76316       -0.45700
H          0.96924        2.12844       -0.65825
H         -0.08625        2.60696       -1.99848
H          0.29928        3.77246       -0.70542
H         -0.07044        1.67246        1.56061
H         -0.68024        3.35108        1.59002
H         -1.80749        1.98393        1.77464
