32
1sa1eda1tma_08.log	Energy: -668370.3586532
S         -0.06933       -0.82576       -0.35321
O          0.87816       -1.64812       -1.09539
O         -0.16604        0.58313       -0.79681
O         -1.44558       -1.42942       -0.25166
O          0.39180       -0.79127        1.17876
H          1.39827       -0.61658        1.23762
H          4.77210       -0.60357        0.15018
H          3.28198       -1.34703       -0.48965
H          3.81737        0.68983       -1.74064
H          2.29341        0.86973       -0.86729
H          4.84318        2.10396       -0.13035
H          3.37204        2.79769       -0.30053
H          3.37874       -1.12304        1.98949
H          3.25382        0.50368        1.76831
C          3.68223       -0.48507        0.04959
C          3.37600        0.78241       -0.73839
N          3.02668       -0.40455        1.36477
N          3.84822        1.95717        0.00343
N         -3.13807        0.43439        0.13168
C         -2.56280        1.30225        1.18548
H         -2.37984        0.69765        2.07461
H         -1.61054        1.68715        0.81927
H         -3.25969        2.11399        1.41331
C         -3.27083        1.15254       -1.15568
H         -2.27656        1.49083       -1.45023
H         -3.64894        0.45668       -1.90584
H         -3.96156        1.99284       -1.04005
C         -4.40154       -0.19738        0.55811
H         -4.72846       -0.89308       -0.21564
H         -4.22532       -0.74852        1.48257
H         -5.16631        0.56762        0.71997
H         -2.40724       -0.37980       -0.03676
