23
1sa1a1eda_14.log	Energy: -594390.3921684
S          1.16638        0.05101       -0.00734
O          0.04971        0.41669       -0.94243
O          1.87081        1.20768        0.54924
O          0.67717       -0.91823        1.00020
O          2.19780       -0.72684       -0.94851
H          3.13655       -0.51802       -0.64817
H         -3.14013       -0.58598        1.68859
H         -1.80337        0.56623        1.46133
H         -3.98909        1.57456        0.74007
H         -2.85066        1.42382       -0.60173
H         -5.20391       -0.25238       -0.14972
H         -4.68516        0.44904       -1.53262
H         -1.24118       -1.59200        0.58084
H         -2.55405       -1.47027       -0.51530
C         -2.56659       -0.02114        0.94783
C         -3.47471        0.85312        0.09264
N         -1.86895       -0.97360        0.05631
N         -4.37663       -0.00273       -0.68060
H         -1.16085       -0.41593       -0.54875
N          4.57471        0.14008       -0.00104
H          5.24782        0.52774       -0.65235
H          5.07394       -0.40030        0.69648
H          4.08804        0.90479        0.46526
