29
1sa1dma1eda_76.log	Energy: -643707.5783152
S         -0.32491        0.99543        0.25422
O          0.57956        1.58352        1.23091
O         -1.67132        1.56808        0.14494
O          0.30384        1.16098       -1.20030
O         -0.42501       -0.51921        0.44542
H          1.18934        0.65523       -1.26251
H         -1.74941       -0.96293        0.12973
H          4.43463       -0.94140       -0.84662
H          4.08091        0.79617       -0.69653
H          4.08735       -0.49565        1.48260
H          2.61194        0.43351        1.18014
H          2.64681       -2.18418        1.78621
H          1.42584       -1.45551        0.97160
H          2.80227       -0.25273       -2.46638
H          2.12548       -1.26852       -1.37287
C          3.65695       -0.20766       -0.59202
C          3.19728       -0.43121        0.84790
N          2.50395       -0.32965       -1.49858
N          2.42035       -1.67345        0.94275
N         -2.80295       -1.23890       -0.11239
C         -3.11648       -0.70307       -1.45810
C         -3.67298       -0.69914        0.95827
H         -2.85681       -2.25578       -0.12353
H         -2.97249        0.37727       -1.41770
H         -2.41643       -1.13018       -2.17675
H         -4.14397       -0.95366       -1.73110
H         -3.50260        0.37728        1.00168
H         -4.71978       -0.92321        0.74107
H         -3.37914       -1.14906        1.90701
