27
1sa1ma1tma_15.log	Energy: -608972.4545427
S          1.59114       -0.58477        0.02483
O          2.48037       -1.72497       -0.13965
O          0.97678       -0.37500        1.34217
O          2.52972        0.74894       -0.15787
O          0.55861       -0.46508       -1.05284
H          3.24255        0.51735       -0.76701
H         -0.87256       -0.41200       -0.30076
N         -0.53824        2.34517        0.66477
H         -0.62961        3.07929        1.35994
C         -0.03033        2.90696       -0.59065
H          0.92736        3.43365       -0.48894
H          0.11773        2.09413       -1.30625
H         -0.76761        3.60387       -1.00323
H          0.13662        1.67818        1.03901
N         -1.88668       -0.62344       -0.06594
C         -2.70083        0.31992       -0.86805
H         -2.43737        1.32909       -0.54535
H         -2.45462        0.18418       -1.92185
H         -3.76134        0.11696       -0.69918
C         -2.07749       -2.03202       -0.48342
H         -1.80789       -2.12662       -1.53516
H         -1.41650       -2.66243        0.11186
H         -3.11984       -2.31875       -0.32575
C         -2.11326       -0.44430        1.38952
H         -1.38103       -1.04296        1.92995
H         -1.95717        0.60920        1.61861
H         -3.13484       -0.75350        1.62611
