26
1sa1ma1eda_92.log	Energy: -619048.4199988
S         -1.31357        1.06882        0.17244
O         -2.15879        2.16451        0.61425
O         -0.13779        1.49329       -0.63972
O         -0.95738        0.03040        1.14496
O         -2.23923        0.19420       -0.90280
H         -2.77616        0.81987       -1.40543
H          1.29263       -0.34316        1.18677
H          2.38836       -1.67713        0.77523
H          3.51848        0.50717        1.49027
H          4.11174       -0.20330       -0.01409
H          2.06458        1.91747       -0.05156
H          3.67148        2.13376       -0.36055
H          0.64183       -1.52538       -0.83784
H          0.86316        0.14997       -0.97390
C          2.06284       -0.67468        0.48678
C          3.24640        0.29063        0.44577
N          1.38200       -0.75266       -0.83202
N          2.91866        1.45712       -0.35983
H          2.04529       -0.86789       -1.59554
N         -0.74766       -2.53568       -0.67644
H         -1.47418       -1.82193       -0.74388
C         -0.79645       -3.16110        0.65300
H         -1.74242       -3.67803        0.85188
H          0.01982       -3.88317        0.74896
H         -0.67262       -2.37732        1.40244
H         -0.93703       -3.22178       -1.40054
