26
1sa1ma1eda_140.log	Energy: -619038.1000434
S         -1.46277       -0.90707        0.14501
O         -0.26007       -1.48369        0.80276
O         -2.36995       -0.16722        1.00935
O         -1.08536       -0.19895       -1.10508
O         -2.26902       -2.24470       -0.32679
H         -3.20533       -2.01198       -0.37951
H          2.41420        1.36408       -0.90436
H          1.31234        1.06586        0.45614
H          3.71502        1.09987        1.21427
H          2.95160       -0.46811        1.49176
H          4.88150        0.14145       -0.62049
H          4.85106       -1.12338        0.41453
H          0.83363       -0.32621       -1.49012
H          2.36212       -1.07846       -1.24687
C          2.11737        0.63784       -0.14303
C          3.30498        0.21466        0.71277
N          1.58442       -0.56378       -0.82595
N          4.26738       -0.49880       -0.12836
H          1.04871       -1.15162       -0.12517
N         -1.80643        2.83625       -0.61285
H         -2.72445        2.80887       -0.18121
C         -0.79703        3.02993        0.42056
H         -0.74805        2.22045        1.16756
H          0.18767        3.13402       -0.05098
H         -0.98885        3.96640        0.95351
H         -1.68109        1.91821       -1.03283
