26
1sa1ma1eda_139.log	Energy: -619039.5255755
S         -1.60731        0.12391        0.08846
O         -1.47936       -1.28932        0.45681
O         -1.39570        1.11040        1.14202
O         -0.80246        0.42043       -1.14729
O         -3.15779        0.26568       -0.37456
H         -3.39461        1.20149       -0.32285
H          2.89928       -1.83333       -0.95066
H          2.38984       -0.12815       -1.11691
H          2.75021       -0.92026        1.29942
H          1.16456       -0.22070        0.99247
H          1.67157       -2.82958        1.87798
H          0.20716       -2.18238        1.44475
H          1.04166       -1.85976       -2.38701
H          0.49297       -2.34091       -0.87650
C          2.10861       -1.11109       -0.73363
C          1.80672       -1.07995        0.76983
N          0.87330       -1.55807       -1.43092
N          1.16902       -2.33540        1.15407
H          0.13781       -0.76962       -1.41472
N          1.11673        2.70448       -0.04697
H          0.60237        2.59724        0.82048
C          2.54569        2.52779        0.13497
H          2.85965        1.55957        0.56747
H          3.05502        2.64358       -0.82790
H          2.93172        3.31077        0.79478
H          0.71082        2.03439       -0.69239
