29
1sa1dma1eda_16.log	Energy: -643709.5890689
S         -1.62515       -1.23299       -0.20509
O         -2.07869        0.08470       -0.67250
O         -2.63845       -2.27146       -0.11612
O         -0.33866       -1.63776       -0.82519
O         -1.14410       -0.96852        1.37583
H         -1.89033       -1.21750        1.93546
H          2.56627        0.76078        1.15453
H          1.18343       -0.34181        1.39134
H          3.34091       -1.61416        1.43107
H          2.30023       -2.09299        0.08537
H          4.72871       -0.47396       -0.10842
H          4.25111       -1.73564       -1.03232
H          0.84985        1.25541       -0.46010
H          2.18694        0.44073       -1.24515
C          2.00938       -0.07894        0.72714
C          2.91639       -1.27777        0.47651
N          1.42918        0.35563       -0.56391
N          3.92131       -0.92207       -0.52770
H          0.75751       -0.39500       -0.87350
N         -0.36938        2.39314       -0.13304
C         -0.36436        3.66276       -0.85073
C         -0.51305        2.55171        1.31278
H         -1.13764        1.80027       -0.45971
H          0.51363        4.24927       -0.55871
H         -0.31069        3.47713       -1.92643
H         -1.26091        4.26639       -0.64627
H          0.37811        3.03869        1.72482
H         -1.39017        3.15744        1.58425
H         -0.62335        1.56368        1.76742
