18
1sa1a1ma_14.log	Energy: -534993.6366676
S         -1.36416       -0.11554        0.08193
O         -0.51983        0.11838        1.26030
O         -2.73147       -0.55695        0.28464
O         -1.21530        0.98879       -0.91359
O         -0.58840       -1.40149       -0.63480
H          0.13064        1.77309       -0.53721
H         -1.22654       -1.83978       -1.21212
N          2.18522       -0.40913        0.13339
H          1.85797       -0.62341        1.07344
C          3.57713       -0.82340       -0.06088
H          3.74483       -1.88921        0.13341
H          3.87665       -0.61248       -1.09066
H          4.22707       -0.24651        0.60219
H          1.55392       -0.93958       -0.46715
N          1.05143        2.07099       -0.08491
H          0.82681        2.35995        0.86480
H          1.51066        2.82060       -0.59246
H          1.64517        1.16339       -0.03160
