24
1sa1a1tma_02.log	Energy: -584320.0375236
S         -0.97284       -0.37216       -0.09107
O         -0.39359       -0.33571        1.26451
O         -2.04763       -1.34239       -0.29339
O         -1.58610        1.08549       -0.37615
O          0.12507       -0.46868       -1.11518
H         -2.56712        1.06949       -0.15426
H          1.40378       -0.14502       -0.48915
N         -4.20575        0.64260        0.15420
H         -4.90431        0.92291       -0.52492
H         -4.57724        0.80367        1.08370
H         -4.02444       -0.35495        0.04585
N          2.36103        0.12985       -0.02328
C          2.67468       -0.92062        0.97208
H          1.84165       -0.97330        1.67365
H          2.76890       -1.87613        0.45452
H          3.61103       -0.67602        1.48163
C          3.36450        0.19957       -1.10393
H          3.43527       -0.77631       -1.58562
H          3.04064        0.93807       -1.83811
H          4.33636        0.48307       -0.69083
C          2.14274        1.44600        0.62155
H          1.82731        2.15961       -0.14062
H          1.34317        1.33137        1.35409
H          3.07000        1.78148        1.09438
