32
1sa1eda1tma_10.log	Energy: -668370.5803586
S         -0.01846        1.20899       -0.23779
O         -0.99353        1.71807       -1.19183
O          1.25029        1.93693       -0.11644
O         -0.65194        1.25969        1.22525
O          0.25860       -0.27442       -0.47186
H         -1.47200        0.65489        1.27527
H          1.67068       -0.53570       -0.16637
H         -4.52697       -1.27565        0.80857
H         -4.33902        0.48738        0.65363
H         -4.17749       -0.82079       -1.51700
H         -2.82102        0.26916       -1.19691
H         -2.56190       -2.34869       -1.77341
H         -1.43542       -1.46547       -0.97279
H         -2.99613       -0.43679        2.45210
H         -2.19832       -1.36931        1.36431
C         -3.81889       -0.47147        0.56319
C         -3.31195       -0.65315       -0.86747
N         -2.67532       -0.47637        1.48935
N         -2.39699       -1.79981       -0.93972
N          2.72498       -0.73181        0.07365
C          2.95436       -0.18788        1.43341
H          2.71838        0.87640        1.41216
H          2.27886       -0.68940        2.12755
H          3.99392       -0.36073        1.72526
C          2.91553       -2.19481        0.01932
H          2.24586       -2.66581        0.74000
H          2.66851       -2.54738       -0.98285
H          3.95362       -2.44373        0.25569
C          3.53722       -0.02238       -0.94204
H          3.28863       -0.41959       -1.92701
H          3.27176        1.03425       -0.90292
H          4.59976       -0.17511       -0.73314
