24
1sa1ma1dma_30.log	Energy: -584307.9523746
S          1.51859        0.20924       -0.02976
O          1.43185        1.43409       -0.82355
O          0.85638        0.21232        1.27496
O          1.15611       -1.01454       -0.82016
O          3.09733        0.01540        0.32408
H          3.60352        0.35548       -0.42538
N         -1.12780       -2.04343       -0.16354
C         -1.48612       -1.81871        1.25761
C         -2.11340       -1.47819       -1.11869
H         -0.16349       -1.59469       -0.37721
H         -2.41632       -2.34390        1.48478
H         -0.67173       -2.17326        1.88803
H         -1.60207       -0.74621        1.40248
H         -3.08094       -1.96510       -0.97840
H         -2.18072       -0.40402       -0.91013
H         -1.74741       -1.64382       -2.13236
H         -1.00858       -3.04115       -0.33323
N         -1.60715        1.60400        0.01531
H         -1.07163        1.53424        0.87752
C         -2.63941        2.63272        0.12746
H         -2.25805        3.62976        0.39008
H         -3.17454        2.71794       -0.82317
H         -3.36962        2.33911        0.88790
H         -0.91114        1.87068       -0.67809
