29
1sa1dma1eda_00.log	Energy: -643714.6233514
S         -1.80950       -0.15810       -0.02650
O         -3.23370        0.64401       -0.01609
O         -1.17001        0.12058        1.27552
O         -2.13100       -1.56459       -0.25477
O         -1.09210        0.50785       -1.14320
H          0.36109        1.22748       -0.61835
H          0.27699       -2.29272       -0.08358
H          1.62696       -3.20525       -0.73141
H          2.13554       -2.72905        1.53425
H          3.21691       -1.73300        0.54205
H          0.71722       -0.69794        1.71833
H          2.21368       -0.48299        2.35985
H          1.94462       -1.58867       -2.24811
H          0.53943       -0.90186       -1.76341
C          1.32817       -2.20890       -0.38219
C          2.17269       -1.87315        0.84436
N          1.45698       -1.20624       -1.44718
N          1.71285       -0.63509        1.48999
N          1.20717        1.58476       -0.11734
C          0.77843        2.63807        0.82254
C          2.24304        1.99588       -1.07856
H          1.53719        0.73685        0.43952
H          0.38706        3.49019        0.26363
H         -0.00581        2.21971        1.45485
H          1.63161        2.95459        1.42681
H          1.85543        2.78670       -1.72392
H          3.11711        2.36246       -0.53578
H          2.50993        1.11781       -1.66694
H         -3.87148        0.08695        0.44916
