26
1sa1ma1eda_40.log	Energy: -619047.2436006
S         -0.78764        0.01243       -0.12353
O         -1.45394       -1.11059        0.53776
O         -0.28200        1.04479        0.82329
O          0.29621       -0.38840       -1.07475
O         -1.86433        0.72367       -1.05935
H         -2.74553        0.73926       -0.55425
H          3.32095        0.33797        1.78163
H          2.09021       -0.82826        1.24686
H          4.39841       -1.67196        0.73873
H          3.45821       -1.40428       -0.73200
H          5.61616        0.30843        0.25303
H          5.37159       -0.27637       -1.25405
H          1.56579        1.42636        0.55263
H          3.00250        1.41590       -0.40969
C          2.88383       -0.15870        0.91077
C          3.94560       -0.89745        0.10670
N          2.26812        0.86715        0.04106
N          4.90189        0.07378       -0.42796
H          1.62488        0.37725       -0.66095
N         -4.09323        0.48025        0.40630
H         -3.66534        0.34715        1.31901
C         -4.70126       -0.77596       -0.05049
H         -5.49418       -1.14322        0.61291
H         -5.11933       -0.62893       -1.04957
H         -3.91274       -1.52843       -0.11355
H         -4.78331        1.21887        0.49257
