27
1sa1ma1tma_14.log	Energy: -608972.3210903
S         -1.73182        0.42928       -0.10576
O         -2.99167        0.92331       -0.63073
O         -1.09612        1.22843        0.95020
O         -2.08112       -1.03007        0.62418
O         -0.74930       -0.02865       -1.12729
H         -2.87710       -0.90274        1.15633
H          0.51094       -0.75364       -0.47470
N          1.66903        1.80004       -0.24694
H          1.39749        1.88052       -1.22260
C          2.49818        2.93879        0.14551
H          2.02366        3.91832       -0.00709
H          2.74940        2.85196        1.20693
H          3.43825        2.92552       -0.41512
H          0.78742        1.80796        0.26761
N          1.19604       -1.44900       -0.04723
C          1.34749       -1.09481        1.38656
H          1.78825       -0.10002        1.43902
H          0.35886       -1.08076        1.84532
H          1.99032       -1.83588        1.86867
C          0.55831       -2.77672       -0.21992
H         -0.41418       -2.75342        0.27222
H          0.41459       -2.95884       -1.28514
H          1.20186       -3.54602        0.21355
C          2.47987       -1.33579       -0.77695
H          2.30263       -1.54775       -1.83224
H          2.83061       -0.30910       -0.65737
H          3.19315       -2.05494       -0.36601
