24
1sa1ma1dma_12.log	Energy: -584313.5713322
S         -0.42136       -0.89641        0.08731
O         -1.55329       -1.35685        0.87234
O          0.60021       -1.83651       -0.34504
O         -0.97033       -0.19182       -1.21601
O          0.27106        0.26732        0.87426
H         -1.91419        0.19411       -1.01606
H          1.30884        0.33324        0.55548
N          2.66255        0.26654        0.03198
C          3.69342        0.77604        0.93639
C          2.68263        0.88886       -1.29541
H          2.75193       -0.74247       -0.07616
H          3.51870        1.84072        1.11319
H          3.62769        0.25270        1.89231
H          4.70340        0.65090        0.52495
H          2.47408        1.95684       -1.18937
H          3.65235        0.76545       -1.79393
H          1.89904        0.43988       -1.90902
N         -3.32419        0.66487       -0.47670
H         -4.01856        0.92750       -1.16862
C         -3.13719        1.72561        0.52384
H         -4.06060        1.98566        1.05317
H         -2.39510        1.38843        1.25011
H         -2.74789        2.61887        0.03035
H         -3.64078       -0.18928       -0.02363
