23
1sa1a1eda_54.log	Energy: -594388.8146604
S          1.76280       -0.14734       -0.09345
O          1.93991       -1.52573       -0.52658
O          1.00640        0.04484        1.16680
O          3.24826        0.40622        0.30230
O          1.26541        0.76965       -1.15534
H          3.87692       -0.00136       -0.30779
H         -0.01404        1.78144       -0.54287
H         -4.01009       -1.03011       -0.56170
H         -3.10263       -0.17767       -1.82266
H         -1.84813       -2.13305       -0.85083
H         -0.98685       -0.61492       -0.73932
H         -2.11820       -2.11163        1.45704
H         -0.77308       -1.16711        1.38861
H         -4.04837        1.36851       -0.22530
H         -3.24329        0.60409        0.99050
C         -3.12752       -0.40241       -0.75182
C         -1.85634       -1.15471       -0.35369
N         -3.20014        0.86040        0.00408
N         -1.74646       -1.23868        1.10226
N         -0.65481        2.01884        0.25045
H         -0.61764        3.00819        0.47497
H         -0.23751        1.44507        1.00602
H         -1.64878        1.68483        0.06669
