30
1sa1dma1tma_14.log	Energy: -633631.4520949
S          1.90728        0.36835       -0.12965
O          1.94953       -0.64209        0.93887
O          3.13294        0.55780       -0.88871
O          0.66636        0.22145       -0.94921
O          1.62025        1.80681        0.61686
H          2.47983        2.19050        0.83329
N         -2.63241        1.35788        0.09924
C         -2.28039        1.75727       -1.26277
C         -1.85595        2.09304        1.09570
H         -3.61921        1.54186        0.25232
H         -1.23099        1.50823       -1.44484
H         -2.89874        1.20816       -1.98041
H         -2.41565        2.83585       -1.44507
H         -0.79358        1.86683        0.96927
H         -1.97503        3.18596        1.01425
H         -2.15956        1.78879        2.10253
N         -0.79560       -1.75206        0.00835
C         -2.03691       -1.84449       -0.79302
H         -2.60080       -0.92385       -0.62936
H         -1.76951       -1.94425       -1.84590
H         -2.61215       -2.71611       -0.46994
C          0.08047       -2.93590       -0.16059
H          0.30164       -3.05789       -1.22162
H          1.00669       -2.75059        0.38415
H         -0.43332       -3.82181        0.22086
C         -1.08417       -1.47888        1.43836
H         -0.13419       -1.29290        1.94034
H         -1.71883       -0.59320        1.48311
H         -1.59719       -2.34206        1.87054
H         -0.24070       -0.91609       -0.36088
