26
1sa1ma1eda_57.log	Energy: -619047.5837188
S          0.59365        0.30182        0.34069
O         -0.04582        1.52902       -0.26207
O          1.66823        0.64393        1.27044
O         -0.44712       -0.61120        0.84333
O          1.25816       -0.47491       -0.89089
H          2.24442       -0.22839       -0.93820
H         -2.40630        0.68832        1.13543
H         -3.89816        1.45581        0.53406
H         -4.04502       -1.02763        1.31156
H         -4.75883       -0.67037       -0.26918
H         -2.03542       -1.73971        0.07155
H         -3.33743       -2.51419       -0.61862
H         -1.41411        1.27059       -0.71444
H         -2.36278        0.00901       -1.38792
C         -3.16302        0.67087        0.35089
C         -3.81344       -0.71870        0.28373
N         -2.44333        0.93588       -0.92825
N         -2.91430       -1.61447       -0.43244
H         -2.92816        1.58418       -1.54140
N          3.83529        0.15374       -0.65036
H          4.43452        0.50327       -1.39002
C          4.44229       -0.98686        0.04361
H          5.41954       -0.76194        0.48805
H          3.76204       -1.30242        0.83748
H          4.55764       -1.81655       -0.65834
H          3.66335        0.90820        0.01049
