32
1sa1eda1tma_13.log	Energy: -668372.6089022
S         -0.09868       -1.53963       -0.13439
O          0.19041       -0.30618       -0.97381
O         -1.14430       -2.35819       -0.73232
O          1.15622       -2.17741        0.26806
O         -0.68803       -0.93994        1.24471
H         -1.62394       -0.61107        1.06032
H         -3.12933        2.64070        0.57023
H         -2.51564        2.82599       -1.06316
H         -4.09775        1.00216       -1.06293
H         -2.47359        0.36912       -1.38210
H         -3.85203        0.16574        1.19832
H         -3.46620       -1.04460        0.16241
H         -1.14352        1.67712        1.24695
H         -0.62970        1.40289       -0.25355
C         -2.49908        2.16270       -0.19053
C         -3.10940        0.82293       -0.61525
N         -1.12952        2.08512        0.31711
N         -3.17352       -0.13197        0.50301
N          2.37073        0.75113       -0.06065
C          3.50958       -0.07514       -0.52294
H          3.33153       -1.10091       -0.19784
H          3.54548       -0.04441       -1.61252
H          4.44012        0.31805       -0.10490
C          2.41766        2.13922       -0.57122
H          2.46928        2.11099       -1.66046
H          1.50526        2.65564       -0.26355
H          3.29777        2.64805       -0.16959
C          2.23042        0.70929        1.41561
H          1.34551        1.28097        1.69602
H          2.09642       -0.33020        1.71595
H          3.12270        1.14230        1.87524
H          1.47313        0.29518       -0.46792
