26
1sa1ma1eda_12.log	Energy: -619050.6105848
S          1.92531       -0.32715        0.02539
O          2.27547        0.89464       -0.71729
O          1.15393       -0.11202        1.25171
O          1.33050       -1.37285       -0.85328
O          3.33254       -0.95164        0.55458
H          3.94963       -0.95100       -0.18904
H         -1.82706       -2.06108        0.61713
H         -1.10722       -0.59050        1.28634
H         -3.58960       -0.63387        1.68995
H         -3.14523        0.70333        0.62577
H         -4.37924       -1.80823       -0.23752
H         -4.86694       -0.27787       -0.53469
H         -0.33843       -1.06482       -0.95199
H         -1.95575       -0.86540       -1.50529
C         -1.80879       -0.96987        0.54114
C         -3.20656       -0.38823        0.69069
N         -1.27115       -0.61038       -0.79141
N         -4.05022       -0.86338       -0.40783
H         -1.07990        0.44466       -0.84229
N         -0.48943        2.06487       -0.75280
H          0.50919        1.90148       -0.91539
C         -0.66603        2.62949        0.59272
H         -0.17134        3.59891        0.72361
H         -1.73282        2.75757        0.80370
H         -0.24003        1.92896        1.31475
H         -0.80591        2.72113       -1.45992
