26
1sa1ma1eda_69.log	Energy: -619046.4466246
S          0.54287       -0.80085       -0.25665
O          0.07217       -1.60490       -1.36592
O          0.61936        0.65183       -0.46077
O         -0.33349       -1.08790        1.01075
O          1.94580       -1.30394        0.20578
H         -1.36882       -1.05174        0.73376
H          2.51834       -0.49958        0.56584
H         -4.40959        0.47068        0.35853
H         -3.47140        0.27639        1.85675
H         -3.01255        2.45628        0.68822
H         -1.56697        1.46275        0.89225
H         -2.70316        2.28699       -1.56479
H         -1.28620        1.47848       -1.28292
H         -3.35165       -1.70590        0.43645
H         -2.68134       -0.78889       -0.75686
C         -3.39826        0.34226        0.76643
C         -2.52272        1.53116        0.36189
N         -2.77613       -0.88937        0.25611
N         -2.27989        1.50919       -1.07821
N          3.29598        0.77047        0.94490
H          2.57696        1.40140        1.28885
C          3.89614        1.31033       -0.28480
H          4.37905        2.28210       -0.13579
H          4.63524        0.59976       -0.66066
H          3.10583        1.41155       -1.03081
H          3.98888        0.65808        1.67816
