29
1sa1dma1eda_12.log	Energy: -643710.3494095
S          2.00480       -0.44637       -0.16170
O          2.22058       -1.84933       -0.49267
O          1.47327       -0.19800        1.19554
O          3.48178        0.25766       -0.19893
O          1.25782        0.34334       -1.17625
H          4.12280       -0.42226        0.04573
H          0.02992        1.15290       -0.49826
H         -3.58684       -2.27889        0.51272
H         -3.05390       -2.33559       -1.16984
H         -1.17487       -2.67213        0.38773
H         -0.94438       -1.25489       -0.63236
H         -1.92925       -1.11275        2.13508
H         -0.40975       -0.75525        1.61775
H         -4.45297       -0.48052       -0.98190
H         -3.67329        0.10429        0.32543
C         -3.00407       -1.73966       -0.25370
C         -1.54918       -1.66042        0.18562
N         -3.54231       -0.40808       -0.54131
N         -1.39571       -0.76458        1.34295
N         -0.74528        1.65228        0.02192
C         -1.65769        2.28859       -0.94685
C         -0.11403        2.58038        0.98261
H         -1.22719        0.88421        0.55493
H         -1.08132        2.94677       -1.59916
H         -2.14963        1.50181       -1.51946
H         -2.41146        2.86921       -0.41012
H          0.45323        3.33264        0.43192
H         -0.88552        3.06379        1.58555
H          0.56310        1.99865        1.60902
