29
1sa1dma1eda_07.log	Energy: -643709.6767445
S          1.02849       -1.50218       -0.08669
O          0.03956       -1.82768       -1.11095
O          2.11268       -0.59494       -0.50130
O          0.40540       -1.06622        1.19793
O          1.74338       -2.92839        0.23879
H          2.54257       -2.74526        0.74984
H         -2.46142        1.40091       -1.23554
H         -1.33554        0.02789       -1.46867
H         -3.67479       -0.79829       -1.26978
H         -2.64249       -1.37335        0.03822
H         -4.72182        0.67310        0.25128
H         -4.39601       -0.57493        1.25400
H         -0.78395        0.08316        0.84228
H         -0.48767        1.58738        0.20154
C         -2.03806        0.50020       -0.78019
C         -3.12655       -0.48270       -0.37328
N         -1.28780        0.90972        0.43059
N         -3.97154        0.12539        0.65834
H         -1.95013        1.26879        1.12040
N          1.09850        2.17172       -0.09931
C          1.69306        2.32267        1.22962
C          1.31329        3.33244       -0.95668
H          1.52432        1.34075       -0.52018
H          1.18607        3.12804        1.77326
H          1.56935        1.38464        1.77710
H          2.76548        2.55943        1.18410
H          0.81551        4.20735       -0.52506
H          2.37901        3.57405       -1.08160
H          0.88311        3.14551       -1.94395
