26
1sa1ma1eda_55.log	Energy: -619047.8222434
S          1.68234       -0.58810       -0.03263
O          0.84411       -1.17410        1.05116
O          2.90637       -1.31722       -0.30994
O          0.85218       -0.18030       -1.17887
O          2.16454        0.87344        0.57893
H          3.04052        0.74203        0.96396
H         -2.66757       -1.50328        1.57002
H         -3.55686        0.00863        1.28876
H         -3.81116       -1.45417       -0.63397
H         -2.92858       -0.01180       -1.09773
H         -0.92400       -1.25546       -1.23622
H         -1.63599       -2.60927       -0.61528
H         -0.58976       -0.42373        1.12926
H         -1.34697        0.98864        0.52359
C         -2.70397       -0.59459        0.96186
C         -2.84665       -0.94350       -0.52624
N         -1.46150        0.17680        1.22150
N         -1.80720       -1.74812       -1.12084
H         -1.44932        0.55402        2.16665
N         -0.90087        2.11726       -0.67565
H         -0.25397        1.49177       -1.16391
C         -0.15913        3.26414       -0.13407
H          0.30387        3.88364       -0.91060
H         -0.82981        3.89321        0.45832
H          0.63525        2.88688        0.51357
H         -1.59502        2.42617       -1.34907
