29
1sa1dma1eda_94.log	Energy: -643704.9840467
S          1.39549       -1.03050       -0.10472
O          0.44692       -1.61685       -1.05640
O          2.13283        0.14040       -0.67633
O          0.88523       -0.73448        1.23403
O          2.52993       -2.17206        0.14510
H          2.67909       -2.62338       -0.69620
H          0.40852        4.03151        0.15315
H          1.31525        3.19091       -1.13526
H         -1.21739        3.00457       -1.41713
H         -0.41375        1.43874       -1.26221
H         -2.13037        2.67550        0.70752
H         -1.85054        1.06083        0.36239
H          1.92012        2.67388        1.32320
H          0.47547        1.80356        1.28187
C          0.62280        3.06079       -0.30170
C         -0.67317        2.35521       -0.72074
N          1.25894        2.19196        0.72093
N         -1.41886        1.99328        0.47534
H          1.73410        1.36693        0.23599
N         -2.31099       -0.77212       -0.04670
C         -3.46623       -0.99596       -0.90130
C         -2.43403       -1.41622        1.25567
H         -1.47204       -1.12880       -0.50347
H         -4.35221       -0.52902       -0.45526
H         -3.29776       -0.53588       -1.87920
H         -3.69130       -2.06449       -1.05542
H         -3.24118       -0.94209        1.82704
H         -2.65843       -2.49292        1.18014
H         -1.49457       -1.29271        1.79870
