29
1sa1dma1eda_06.log	Energy: -643710.0936994
S          0.34209        1.76042       -0.09989
O          1.68197        1.86743       -0.68033
O         -0.70566        1.25483       -0.99525
O          0.34730        1.05459        1.21605
O         -0.14771        3.27902        0.23185
H          0.60320        3.74797        0.61893
H          0.89967       -2.58263       -1.21090
H          0.77171       -0.81592       -1.38779
H          3.16776       -1.51961       -1.29560
H          2.73004       -0.48617        0.06116
H          3.20790       -3.37129        0.16647
H          3.70748       -2.20412        1.19441
H         -0.75362       -1.61334        0.30138
H          0.63727       -2.26309        1.16558
C          1.10183       -1.62122       -0.72846
C          2.57557       -1.47846       -0.37300
N          0.29494       -1.55539        0.51385
N          2.93433       -2.50246        0.61252
H          0.40733       -0.60182        0.94505
N         -2.32712       -1.04615       -0.09839
C         -2.89017       -0.50984        1.14122
C         -3.27414       -1.85329       -0.85819
H         -2.00725       -0.25059       -0.65619
H         -3.10783       -1.32943        1.83518
H         -2.15991        0.16214        1.60024
H         -3.82040        0.05063        0.97038
H         -3.53737       -2.74969       -0.28652
H         -4.20397       -1.31216       -1.08843
H         -2.81610       -2.16967       -1.79893
