26
1sa1ma1eda_41.log	Energy: -619048.1571219
S          2.04443       -0.54590       -0.18351
O          1.29335       -1.43963        0.74293
O          3.35029       -1.04566       -0.57752
O          1.16749        0.01035       -1.21983
O          2.36316        0.80944        0.74009
H          3.17362        0.63684        1.23560
H         -2.43230       -2.12555        0.84819
H         -2.33738       -0.78310        1.99764
H         -4.53944       -0.77373        0.83640
H         -3.60703        0.67122        0.43011
H         -3.97533       -1.64594       -1.32347
H         -4.23175       -0.06211       -1.65024
H         -0.31282       -1.04119        0.51157
H         -1.31631       -0.61522       -0.75977
C         -2.40807       -1.03546        0.93719
C         -3.64898       -0.41569        0.30146
N         -1.20258       -0.53893        0.25432
N         -3.64941       -0.70536       -1.12898
H         -1.00569        0.48644        0.47378
N         -0.39743        2.09198        0.73769
H         -0.74448        2.68725        1.48290
C         -0.46639        2.78187       -0.55879
H          0.05644        3.74536       -0.56620
H         -0.00969        2.13396       -1.30994
H         -1.51350        2.95320       -0.82709
H          0.57713        1.87285        0.95095
