24
1sa1ma1dma_33.log	Energy: -584305.2468543
S          1.51711       -0.31976        0.00655
O          1.35496       -1.76411       -0.06279
O          0.99687        0.34111        1.22700
O          3.12286       -0.04467        0.11248
O          1.06822        0.40458       -1.21605
H          3.56753       -0.75426       -0.36954
H          0.12278        1.76379       -0.77533
N         -2.73506       -0.71801       -0.01956
C         -2.22188       -1.25443        1.23909
C         -2.15382       -1.37929       -1.18607
H         -3.74271       -0.83813       -0.04195
H         -1.15046       -1.05048        1.31622
H         -2.72290       -0.76262        2.07862
H         -2.36374       -2.34289        1.33629
H         -1.07742       -1.19211       -1.21751
H         -2.30187       -2.47130       -1.18197
H         -2.59826       -0.96943       -2.09788
N         -0.29917        2.33180        0.00235
H          0.04355        1.75606        0.80567
C         -1.77716        2.41144       -0.06905
H         -2.14959        2.94896        0.80364
H         -2.06211        2.93980       -0.97940
H         -2.17606        1.38690       -0.08146
H          0.15089        3.24376        0.03134
