23
1sa1a1eda_19.log	Energy: -594389.1263036
S         -1.04491       -0.75155       -0.25233
O         -0.22797       -1.41395       -1.24915
O         -2.46608       -1.04000       -0.17152
O         -0.43581       -0.93762        1.16383
O         -0.86473        0.81902       -0.51786
H          0.62459       -0.63712        1.22799
H         -1.66513        1.30864       -0.12370
H          3.93939       -0.15658        0.70414
H          2.92734       -1.51077        0.14746
H          3.35306        0.32357       -1.58716
H          1.66646       -0.11282       -1.32996
H          2.82658        2.42259       -0.91129
H          1.25133        1.96752       -0.74461
H          2.28369       -0.53440        2.33937
H          1.89098        0.84607        1.51928
C          2.93167       -0.44147        0.37584
C          2.53139        0.36535       -0.86430
N          1.95543       -0.17313        1.44835
N          2.20670        1.74486       -0.48914
N         -3.13276        1.80798        0.48547
H         -3.15343        2.17349        1.43141
H         -3.57429        0.88945        0.48639
H         -3.67929        2.42429       -0.10647
