30
1sa1dma1tma_13.log	Energy: -633633.4949332
S         -1.72244        0.51577        0.07306
O         -1.99892       -0.56401        1.02032
O         -1.24444        1.78506        0.63134
O         -0.86100        0.04535       -1.05787
O         -3.16986        0.83980       -0.59732
H         -3.13478        1.74386       -0.93636
N          1.83191        1.35599        0.09350
C          2.00637        1.69649       -1.31173
C          2.75992        2.06904        0.95816
H          0.87642        1.59422        0.35892
H          2.97542        1.32484       -1.67003
H          1.20897        1.22497       -1.89129
H          1.97694        2.78265       -1.50103
H          3.78674        1.74572        0.74887
H          2.72157        3.16396        0.82998
H          2.54116        1.84243        2.00594
N          0.73680       -1.81911       -0.04445
C         -0.14503       -2.99055       -0.26304
H         -1.08655       -2.80122        0.25400
H         -0.33335       -3.09333       -1.33208
H          0.34231       -3.88852        0.12408
C          1.99435       -1.88952       -0.82113
H          1.75095       -1.97965       -1.88060
H          2.53986       -0.96214       -0.64176
H          2.57463       -2.75644       -0.49547
C          0.99769       -1.59004        1.40011
H          1.58509       -0.67505        1.48261
H          0.03731       -1.46256        1.90024
H          1.54170       -2.44887        1.80151
H          0.18759       -0.98753       -0.41586
