30
1sa1dma1tma_19.log	Energy: -633628.0471030
S          2.83539       -0.14371       -0.21164
O          1.90872       -1.16422       -0.70947
O          4.11292        0.02221       -0.88493
O          2.11599        1.15174        0.03152
O          3.19540       -0.68690        1.30129
H          4.06539       -0.33388        1.52766
N         -4.05624       -0.25698        0.37871
C         -4.09292       -1.65670       -0.02768
C         -4.79631        0.60983       -0.52939
H         -4.44404       -0.17108        1.31238
H         -3.58288       -1.77062       -0.99055
H         -3.56053       -2.27082        0.70361
H         -5.11370       -2.05557       -0.14298
H         -4.30333        0.61660       -1.50798
H         -5.84167        0.29728       -0.68487
H         -4.79483        1.63447       -0.14727
N         -0.44160        0.64254        0.14842
C         -0.57057       -0.43812        1.15808
H         -0.00811       -1.30084        0.80114
H         -0.13207       -0.08894        2.09394
H         -1.63065       -0.66609        1.28580
C         -1.13894        1.87418        0.57708
H         -0.71876        2.20244        1.52869
H         -0.97757        2.65002       -0.17248
H         -2.20414        1.65554        0.68216
C         -0.89180        0.19059       -1.18970
H         -0.71984        0.99574       -1.90543
H         -0.29018       -0.67393       -1.47064
H         -1.95455       -0.05116       -1.13144
H          0.60890        0.86999        0.07685
