23
1sa1a1eda_20.log	Energy: -594389.2896242
S          1.08657       -0.58182       -0.02744
O          0.35739        0.21589        1.10203
O          2.17751       -1.31118        0.59445
O          0.11312       -1.28273       -0.84124
O          1.69542        0.55978       -0.95005
H          2.60388        0.83327       -0.57941
H         -3.15129        1.36908       -1.33270
H         -1.64026        0.46397       -1.60225
H         -3.49481       -1.08665       -1.13427
H         -2.25295       -1.16327        0.11515
H         -4.88250        0.10037        0.38060
H         -4.14054       -0.95034        1.39016
H         -1.46474        2.38729       -0.02131
H         -2.40807        1.51374        1.01417
C         -2.39094        0.73448       -0.85652
C         -3.03852       -0.52979       -0.30490
N         -1.73019        1.44625        0.25319
N         -3.98237       -0.17486        0.75854
H         -0.51455        0.71945        0.73707
N          4.08798        0.96845        0.15576
H          4.07282        0.07060        0.63700
H          4.19597        1.70003        0.84991
H          4.89331        0.99056       -0.46043
