21
1sa1a1dma_02.log	Energy: -559660.8800582
S         -1.46971       -0.29921       -0.05062
O         -2.81351       -0.83112       -0.19328
O         -0.54126       -1.17478        0.72254
O         -0.81203        0.25270       -1.24335
O         -1.62923        1.05212        0.90302
H         -2.37829        0.89577        1.49203
N          1.90089       -0.29189        0.09721
C          2.92517       -0.52668        1.12818
C          2.23278       -0.82322       -1.23987
H          0.97352       -0.70941        0.39943
H          3.86341       -0.05310        0.83198
H          2.57959       -0.09907        2.06992
H          3.07864       -1.59979        1.25403
H          3.14067       -0.34316       -1.61133
H          2.38468       -1.90180       -1.17158
H          1.38869       -0.61123       -1.89710
H          1.69501        0.74344        0.01398
N          0.96878        2.34396       -0.19030
H          1.42693        3.21383       -0.43905
H          0.37084        2.51707        0.61443
H          0.32459        2.07835       -0.93646
