32
1sa1eda1tma_26.log	Energy: -668369.4971894
S          2.07413       -0.03528        0.02416
O          2.40751        0.76805        1.20550
O          1.29947       -1.25822        0.35083
O          1.49358        0.71048       -1.10133
O          3.49675       -0.56526       -0.58523
H          4.00577       -0.93015        0.15034
H         -0.90443       -3.20343        0.22409
H         -2.61797       -3.14740        0.65627
H         -2.16918       -2.66893       -1.74024
H         -3.07481       -1.39055       -0.91368
H         -0.14715       -1.18237       -1.08982
H         -1.09197       -0.66219       -2.32115
H         -1.63529       -1.94243        2.31217
H         -0.51698       -1.27311        1.33914
C         -1.76336       -2.53013        0.36032
C         -2.09469       -1.87942       -0.97978
N         -1.50659       -1.52461        1.39662
N         -1.09085       -0.86640       -1.32722
N         -1.42306        1.50141        0.03155
C         -0.75986        1.71737        1.34172
H         -1.07896        0.92551        2.01783
H          0.32349        1.68347        1.21859
H         -1.06645        2.69298        1.72945
C         -0.99947        2.51841       -0.96022
H          0.08051        2.43205       -1.08598
H         -1.49403        2.30849       -1.91023
H         -1.28485        3.51147       -0.60418
C         -2.89315        1.44053        0.18732
H         -3.34534        1.25719       -0.78908
H         -3.12114        0.61226        0.86044
H         -3.26037        2.38670        0.59294
H         -1.15873        0.54119       -0.39446
