29
1sa1dma1eda_39.log	Energy: -643708.9314703
S         -0.14823        0.42386       -0.09921
O         -0.62221       -0.32719        1.07220
O          0.54034       -0.40717       -1.11009
O         -1.41332        1.08198       -0.78543
O          0.72773        1.59092        0.27023
H         -2.26702        0.61317       -0.43316
H          2.08200        1.33332       -0.21667
H          4.83900        0.22339        0.34349
H          3.70539        0.99675        1.48942
H          3.72650       -1.55566        1.57095
H          2.13146       -0.86294        1.27761
H          3.42787       -2.66200       -0.37545
H          2.08888       -1.76173       -0.76239
H          3.61151        1.81525       -0.88650
H          2.97323        0.31767       -1.26316
C          3.78696        0.35328        0.61067
C          3.12461       -1.00986        0.83836
N          3.09475        1.01992       -0.52127
N          3.05090       -1.72633       -0.43150
N         -3.42584       -0.21991        0.26115
C         -3.55641       -1.51273       -0.40766
C         -4.70054        0.45301        0.48370
H         -2.92948       -0.35414        1.14035
H         -3.96402       -1.35982       -1.41144
H         -2.56672       -1.96528       -0.50041
H         -4.21799       -2.20242        0.13638
H         -5.16671        0.67026       -0.48197
H         -5.40111       -0.15390        1.07604
H         -4.52775        1.40009        0.99987
