26
1sa1ma1eda_02.log	Energy: -619051.3498336
S         -1.58160       -0.73573       -0.00130
O         -1.06460       -0.29273        1.29441
O         -2.33687        0.27488       -0.75946
O         -0.54319       -1.40563       -0.83601
O         -2.64937       -1.90347        0.38155
H         -3.16144       -2.10150       -0.41365
H          2.59207        1.13287        0.89233
H          1.19612        0.10529        1.32474
H          3.34859       -1.15365        1.60505
H          2.31591       -1.86850        0.36265
H          4.73607       -0.29473       -0.11399
H          4.29025       -1.72237       -0.77265
H          0.87870        1.32939       -0.78662
H          2.21278        0.39099       -1.40528
C          2.02830        0.23224        0.62920
C          2.92966       -0.99485        0.60321
N          1.45276        0.42782       -0.72204
N          3.94066       -0.83039       -0.44461
H          0.77003       -0.34906       -0.91553
N         -0.35932        2.53056       -0.68461
H         -0.32490        3.31613       -1.32657
C         -0.50153        2.99877        0.70275
H         -1.34657        3.68296        0.84206
H         -0.65960        2.12724        1.34257
H          0.41389        3.50982        1.01673
H         -1.18133        1.96964       -0.92707
