26
1sa1ma1eda_07.log	Energy: -619051.0105343
S         -1.34356       -1.06031       -0.05347
O         -2.65044       -1.60725       -0.38162
O         -0.57244       -0.56243       -1.22891
O         -1.26052       -0.11921        1.07376
O         -0.45237       -2.34218        0.49062
H         -0.86631       -3.13867        0.13453
H          2.54390        1.07112        1.41867
H          1.11583        0.00503        1.49199
H          3.19841       -1.33051        1.10178
H          2.07039       -1.44979       -0.24930
H          4.57037        0.06863       -0.21989
H          3.97076       -0.91275       -1.38156
H          0.70035        1.92719        0.08148
H          2.02146        1.39603       -0.92467
C          1.91896        0.37437        0.85149
C          2.74576       -0.76775        0.27565
N          1.29156        1.11797       -0.26622
N          3.71673       -0.22823       -0.68000
H          0.60986        0.47566       -0.75738
N         -0.76741        2.74402        0.61553
H         -1.15281        1.91982        1.08164
C         -1.56386        3.02141       -0.58731
H         -2.61733        3.23618       -0.37358
H         -1.13599        3.87225       -1.12487
H         -1.52783        2.14581       -1.24189
H         -0.80914        3.52313        1.26369
