29
1sa1dma1eda_40.log	Energy: -643707.0339633
S         -0.51019       -1.20587        0.04646
O         -1.83687       -1.52442        0.54378
O          0.28613       -2.22275       -0.61596
O         -0.62344        0.01066       -0.95252
O          0.31112       -0.61440        1.24703
H         -1.45181        0.61938       -0.70506
H          1.35125       -0.66678        1.02696
H          3.91107       -0.32405       -1.17687
H          2.16619       -0.56633       -1.39787
H          2.70972        1.82417       -1.59696
H          1.70401        1.53022       -0.17428
H          4.58482        2.06805       -0.14147
H          3.39678        2.82542        0.68763
H          3.02332       -1.74858        0.54752
H          3.43049       -0.29434        1.23115
C          2.92170       -0.13379       -0.73716
C          2.69953        1.36617       -0.59796
N          2.79268       -0.76044        0.58804
N          3.69236        1.92899        0.32073
N         -2.67945        1.44573       -0.33150
C         -2.65328        1.66890        1.11956
C         -3.86434        0.69491       -0.76566
H         -2.65428        2.34184       -0.81015
H         -2.60471        0.69736        1.61628
H         -1.75637        2.23349        1.38413
H         -3.54135        2.21061        1.47116
H         -3.82407       -0.29721       -0.31111
H         -4.79882        1.19315       -0.47535
H         -3.83961        0.57778       -1.85133
