26
1sa1ma1eda_134.log	Energy: -619042.5151605
S         -1.55374       -0.31525        0.03399
O         -0.62153       -0.22951        1.16217
O         -2.11872        0.93540       -0.46675
O         -1.00572       -1.18652       -1.05251
O         -2.81517       -1.14966        0.64927
H         -3.59328       -0.92139        0.12395
H          3.36960       -1.83648       -0.69277
H          2.27394       -1.12043       -1.90914
H          3.39495        0.55319       -0.27691
H          1.64858        0.69110       -0.41861
H          3.09159        0.06877        1.92165
H          1.44609        0.13107        1.73109
H          1.41604       -3.09192       -0.52001
H          1.36163       -1.96350        0.72503
C          2.43974       -1.28104       -0.84250
C          2.45390        0.03918       -0.05883
N          1.32686       -2.10368       -0.29990
N          2.31161       -0.25507        1.36701
H          0.36496       -1.75236       -0.63620
N          0.42026        2.53865       -0.96933
H          0.60599        3.25791       -1.65939
C          0.51250        3.07821        0.38570
H         -0.09582        3.97660        0.56475
H          0.18114        2.30901        1.08900
H          1.55598        3.32207        0.61648
H         -0.52024        2.18526       -1.13088
