26
1sa1ma1eda_115.log	Energy: -619044.6229390
S         -1.81162       -0.16517       -0.15771
O         -3.16498        0.30009        0.01376
O         -1.56288       -1.45971       -0.77131
O         -0.96500        0.91079       -0.93926
O         -1.11669       -0.14670        1.27564
H         -0.26375        1.40619       -0.32262
H         -0.26503       -0.71505        1.26429
H          2.42150       -2.83218        0.22467
H          0.71128       -2.81138       -0.26261
H          2.14690       -1.67194       -1.89764
H          0.91129       -0.60655       -1.22642
H          3.72290       -0.62524       -0.35550
H          2.98913        0.52753       -1.22952
H          0.99550       -2.25605        2.06527
H          1.88391       -0.93909        1.66717
C          1.54003       -2.18883        0.08243
C          1.83061       -1.14567       -0.98665
N          1.13729       -1.55145        1.34734
N          2.82613       -0.17132       -0.51070
N          0.84064        2.01852        0.51871
H          0.46774        2.08695        1.46125
C          1.32749        3.31588        0.03820
H          2.13417        3.72855        0.65437
H          1.69331        3.20099       -0.98493
H          0.50060        4.02854        0.01753
H          1.59576        1.32715        0.52596
