23
1sa1a1eda_03.log	Energy: -594394.1232807
S         -1.61627       -0.62313        0.07848
O         -0.49882       -1.05414       -0.81154
O         -2.57118       -1.67461        0.38292
O         -1.12780        0.20724        1.18951
O         -2.44442        0.49049       -0.82720
H         -3.07665        0.00257       -1.37032
H          2.69504        1.18370        1.09099
H          1.23977        0.21889        1.46593
H          3.27732       -1.24247        1.42063
H          2.12657       -1.67113        0.14991
H          4.66051       -0.26045       -0.22985
H          4.03962       -1.51328       -1.07646
H          0.88190        1.71666       -0.41127
H          2.12440        0.85242       -1.25293
C          2.04123        0.37850        0.74199
C          2.82812       -0.89897        0.48007
N          1.40742        0.80897       -0.52622
N          3.79975       -0.65826       -0.58974
H          0.68333        0.08250       -0.78838
N         -0.43237        2.85444        0.04065
H         -1.11042        2.93359       -0.71225
H         -0.32141        3.77278        0.45650
H         -0.86148        2.22921        0.72720
