30
1sa1dma1tma_09.log	Energy: -633634.8228750
S          0.26590        1.20257       -0.08786
O          0.39907        0.36912        1.12998
O         -0.44249        0.38200       -1.15494
O         -0.35302        2.50563        0.10380
O          1.71778        1.46337       -0.66143
H          2.27140        0.60594       -0.60305
N          3.12328       -0.77234       -0.37616
C          2.24540       -1.90013       -0.68880
C          3.54601       -0.75383        1.02610
H          3.93773       -0.79690       -0.98191
H          1.34030       -1.80506       -0.08336
H          1.95443       -1.85388       -1.74061
H          2.71753       -2.87210       -0.48152
H          2.66356       -0.57557        1.64621
H          4.02670       -1.69440        1.33317
H          4.24453        0.07139        1.18216
N         -2.45468       -0.64266        0.01977
C         -1.94877       -1.83926        0.72628
H         -1.59507       -2.56024       -0.01245
H         -1.11402       -1.52360        1.35441
H         -2.74848       -2.28243        1.32683
C         -2.92296        0.39353        0.97186
H         -2.11657        0.60486        1.67474
H         -3.14616        1.30534        0.41707
H         -3.81307        0.03239        1.49492
C         -3.48018       -0.96886       -0.98919
H         -3.76375       -0.05356       -1.51004
H         -3.06082       -1.67394       -1.70831
H         -4.35645       -1.40891       -0.50464
H         -1.58419       -0.20514       -0.51999
