26
1sa1ma1eda_38.log	Energy: -619049.9519634
S          0.78586       -1.24937        0.10162
O         -0.38506       -2.09796        0.36956
O          0.62844       -0.45136       -1.14231
O          1.25049       -0.44719        1.23942
O          2.03366       -2.25879       -0.17591
H          1.73819       -2.92331       -0.81217
H         -1.19269        0.42534        1.30241
H         -2.13393        1.92389        1.36962
H         -3.53800       -0.16371        1.18465
H         -3.86056        1.02584       -0.08188
H         -2.11856       -1.31669       -0.47925
H         -3.59927       -1.05184       -1.16374
H         -0.20619        2.09250       -0.06964
H         -0.71053        0.76362       -0.95940
C         -1.86787        1.07283        0.73767
C         -3.11240        0.31256        0.28781
N         -1.08547        1.57397       -0.42215
N         -2.77417       -0.59833       -0.79182
H         -1.65159        2.14840       -1.04261
N          1.33963        2.40739        0.51343
H          1.52976        3.14629        1.18256
C          2.25661        2.49050       -0.63329
H          3.31261        2.44799       -0.34343
H          2.05039        1.64585       -1.29538
H          2.08220        3.42183       -1.17991
H          1.48620        1.50981        0.98675
