23
1sa1a1eda_34.log	Energy: -594390.6981276
S          1.45467       -0.20547        0.00089
O          1.38795       -1.64304       -0.29208
O          1.12766        0.64372       -1.16424
O          0.74761        0.21623        1.22493
O          3.01458        0.10245        0.37128
H          3.56024       -0.38542       -0.25948
H         -3.64723       -0.42096        0.48981
H         -3.21309        0.76798       -0.76132
H         -2.67485       -1.50898       -1.54656
H         -1.17638       -0.61436       -1.30371
H         -2.07747       -2.88254        0.21518
H         -0.55233       -2.24274        0.06433
H         -2.41703        1.01185        1.74806
H         -1.11892        0.13575        1.17959
C         -2.81726        0.02517       -0.06264
C         -2.02461       -1.06923       -0.77953
N         -1.92856        0.72950        0.90254
N         -1.53820       -2.02763        0.19840
H         -1.48798        1.59937        0.45018
N         -0.61840        2.80453       -0.35643
H         -0.13703        3.41907        0.29354
H         -1.00568        3.38345       -1.09443
H          0.09795        2.18976       -0.76716
