26
1sa1ma1eda_01.log	Energy: -619051.0319875
S         -1.37513       -1.08124        0.05712
O         -0.33302       -1.01953       -1.01031
O         -1.82404       -2.43033        0.36267
O         -1.02854       -0.20846        1.18968
O         -2.67760       -0.30945       -0.59188
H         -3.17754       -0.96670       -1.09286
H          2.72403        1.01549        1.32083
H          1.34519       -0.10070        1.50893
H          3.47333       -1.37898        1.15960
H          2.32936       -1.63022       -0.16389
H          4.75627       -0.00310       -0.27487
H          4.19472       -1.09701       -1.35218
H          0.84233        1.71350       -0.01843
H          2.12694        1.12076       -1.03446
C          2.11741        0.25255        0.82287
C          2.98290       -0.89023        0.30803
N          1.42925        0.88361       -0.32666
N          3.91387       -0.37560       -0.69937
H          0.74971        0.17956       -0.72745
N         -0.52422        2.63730        0.58048
H         -0.91912        1.86051        1.11499
C         -1.41711        2.94401       -0.54555
H         -2.40490        3.30079       -0.23147
H         -0.95808        3.70281       -1.18576
H         -1.56749        2.03400       -1.13136
H         -0.43851        3.43609        1.19995
