24
1sa1ma1dma_10.log	Energy: -584314.3899522
S          1.69311       -0.20476       -0.04699
O          0.89463        0.22710       -1.19888
O          0.89860       -1.11261        0.83743
O          3.05583       -0.65439       -0.28457
O          1.84443        1.18479        0.83592
H          2.67546        1.11496        1.32275
N         -1.63254       -0.92653        0.07376
C         -1.75745       -1.43710       -1.30519
C         -2.47838       -1.62242        1.05863
H         -0.61461       -1.00140        0.38090
H         -2.78194       -1.29473       -1.65760
H         -1.04943       -0.88877       -1.92666
H         -1.50606       -2.49915       -1.32064
H         -3.53123       -1.51343        0.78822
H         -2.21292       -2.68060        1.08438
H         -2.30378       -1.18571        2.04259
H         -1.87280        0.10197        0.08303
N         -2.31976        1.83753        0.09527
H         -3.00535        2.05537       -0.62207
C         -1.07122        2.58360       -0.15819
H         -1.22274        3.66816       -0.20122
H         -0.34365        2.35008        0.62134
H         -0.62997        2.23544       -1.09338
H         -2.73009        2.13330        0.97633
