32
1sa1eda1tma_31.log	Energy: -668368.5299965
S          0.03631        1.69492        0.08026
O         -0.71861        1.40308        1.30069
O          1.44799        2.04558        0.22746
O         -0.19339        0.64855       -0.96317
O         -0.69558        3.03786       -0.50206
H         -0.06606        3.47991       -1.08655
H          1.25296       -0.79720        1.09011
H          1.79448       -2.43096        1.45868
H          3.67656       -0.84588        1.33352
H          3.82475       -2.12303        0.11460
H          2.81452        0.57743       -0.46529
H          4.23693       -0.07265       -0.97143
H          1.10736       -1.40612       -1.18732
H          1.55791       -2.93379       -0.88457
C          1.79768       -1.65645        0.68210
C          3.24295       -1.23497        0.39684
N          1.05709       -2.14365       -0.48437
N          3.28246       -0.29332       -0.71413
N         -2.03205       -1.06029       -0.07187
C         -3.18758       -0.13194       -0.01536
H         -2.95984        0.64666        0.71291
H         -3.31900        0.32166       -0.99828
H         -4.08398       -0.68820        0.26916
C         -2.20706       -2.11844       -1.09282
H         -2.38082       -1.64551       -2.06025
H         -1.28361       -2.69866       -1.12176
H         -3.06098       -2.74430       -0.82166
C         -1.71915       -1.62842        1.26272
H         -0.86057       -2.28963        1.14686
H         -1.47036       -0.80202        1.92884
H         -2.59080       -2.17837        1.62685
H         -1.20732       -0.46655       -0.38036
