31
1sa2eda_54.log	Energy: -678442.8910702
S         -0.06006        0.93571        0.13923
O          0.20407        0.52995        1.51929
O         -1.30508        1.69148       -0.07123
O          1.10712        1.87294       -0.36441
O         -0.02441       -0.27015       -0.79274
H          1.95762        1.32050       -0.54434
H         -1.42342       -0.50230       -1.27088
H          4.84099       -0.79766       -0.31360
H          4.45152        0.59969        0.71890
H          3.74044       -1.62994        1.64753
H          2.42453       -0.45067        1.52494
H          2.23526       -2.90090        0.56525
H          1.47913       -1.64500       -0.16200
H          3.84248        0.99428       -1.58200
H          2.84817       -0.30557       -1.55851
C          4.02169       -0.19137        0.09606
C          3.11097       -1.07779        0.94200
N          3.24129        0.43783       -0.98175
N          2.39249       -2.02487        0.08320
H         -4.06368       -1.88253       -0.82074
H         -2.42679       -2.46527       -0.40143
H         -3.74998       -1.47440        1.55318
H         -2.17844       -0.71604        1.29653
H         -4.62823        0.58717        1.25242
H         -3.16850        1.20468        0.76278
H         -2.62206       -0.96833       -2.42798
H         -2.94768        0.25712       -1.33704
C         -3.07138       -1.58636       -0.47085
C         -3.17804       -0.84356        0.86639
N         -2.48705       -0.65481       -1.47056
N         -3.83291        0.44250        0.64631
