21
1sa2ma_11.log	Energy: -559654.0217468
S          1.59567        0.00325        0.07765
O          3.03780        0.08882        0.22348
O          1.12491       -1.15995       -0.73008
O          0.76159        0.18932        1.27332
O          1.16886        1.32418       -0.83892
H          1.89085        1.48824       -1.45887
N         -1.33000       -1.45448        0.27807
H         -1.64451       -0.43381        0.18182
H         -0.38740       -1.48123       -0.20751
C         -2.29677       -2.42471       -0.26197
H         -1.90967       -3.43765       -0.14794
H         -3.25029       -2.33382        0.25986
H         -2.44468       -2.21681       -1.32178
H         -1.12260       -1.59991        1.26510
N         -1.74466        1.28085        0.08573
H         -1.25078        1.50211        0.94860
C         -2.97454        2.06496       -0.04521
H         -2.81025        3.14790        0.01081
H         -3.44943        1.84074       -1.00381
H         -3.67397        1.78439        0.74684
H         -1.07282        1.52290       -0.64154
