31
1sa2eda_28.log	Energy: -678446.7553363
S         -0.12732       -1.72338       -0.15400
O          1.23239       -2.15169        0.16271
O         -0.13231       -0.67464       -1.24486
O         -1.14905       -2.73678       -0.37838
O         -0.57676       -0.88335        1.17231
H         -1.53066       -0.62432        1.03582
H          2.11619        2.24420        1.11674
H          1.14007        0.75763        1.32784
H          3.58975        0.33486        1.75761
H          2.92229       -0.62718        0.43526
H          4.74151        1.65281        0.18043
H          4.74248        0.22815       -0.62245
H          0.67413        2.02467       -0.78008
H          2.26079        1.56454       -1.24860
C          1.92686        1.23458        0.73937
C          3.19651        0.38868        0.73534
N          1.44887        1.34696       -0.66175
N          4.14374        0.94685       -0.23477
H          0.99603        0.42999       -0.96991
H         -4.05223        1.70487       -0.33303
H         -3.78043        1.57450        1.40977
H         -2.23594        3.21098        0.48262
H         -1.35126        1.81298        1.09695
H         -1.20489        1.02974       -1.20861
H         -1.87076        2.44789       -1.72168
H         -3.87366       -0.61797        0.71126
H         -2.93224       -0.39936       -0.59620
C         -3.33843        1.36028        0.43117
C         -2.03297        2.14912        0.30728
N         -3.08814       -0.08285        0.35825
N         -1.33590        2.01773       -0.97359
