15
1sa2a_02.log	Energy: -510336.5198843
S          0.91863       -0.14363       -0.05675
O          1.56765       -1.23159       -0.77149
O          0.38802        0.93289       -0.95492
O         -0.08509       -0.49972        0.95932
O          2.08835        0.58400        0.82290
H          2.91582        0.48736        0.33358
N         -1.98438        1.49409       -0.02590
H         -2.52560        2.19772       -0.51917
H         -2.46080        0.53995       -0.03774
H         -1.00587        1.35356       -0.46733
H         -1.84350        1.77215        0.94262
N         -2.77156       -1.17137        0.02774
H         -2.81839       -1.65014       -0.86653
H         -3.48523       -1.57256        0.62710
H         -1.85434       -1.37373        0.43601
