31
1sa2eda_00.log	Energy: -678448.7777115
S         -1.60740       -0.93883        0.00569
O         -1.66542       -0.09663        1.21274
O         -0.55660       -1.97136        0.08482
O         -1.59219       -0.17686       -1.25886
H         -0.11289        0.75161       -1.30321
H          1.57020        3.11518       -0.63632
H          0.50141        3.03748       -2.06236
H         -0.59403        4.19301       -0.18249
H         -1.46334        2.71540       -0.61205
H         -0.78900        3.28302        1.86482
H         -0.80028        1.73512        1.34638
H          1.51326        0.84742       -1.65263
H          1.04541        0.81656       -0.07338
C          0.64436        2.69216       -1.03439
C         -0.53784        3.10028       -0.15958
N          0.78143        1.22021       -1.04259
N         -0.35029        2.64252        1.21464
H          2.30842       -2.61631        0.46977
H          3.82158       -2.07598       -0.26263
H          3.39584       -0.98552        1.88743
H          3.53314        0.17779        0.55849
H          0.88823       -0.74929        1.47164
H          1.60309        0.62857        2.02526
H          2.42074       -1.95924       -2.02014
H          1.11143       -1.58964       -1.12947
C          2.80100       -1.76341       -0.01898
C          2.89974       -0.61280        0.97997
N          2.10350       -1.37714       -1.25271
N          1.58272       -0.03465        1.25731
O         -3.03042       -1.72227       -0.08319
H         -3.14300       -2.22093        0.73711
