31
1sa2eda_107.log	Energy: -678440.3414491
S          0.17014       -0.21374        0.26344
O          0.79160       -1.03157       -0.77756
O         -0.15599        1.16972       -0.18146
O         -1.02170       -0.85690        0.90184
O          1.20031       -0.06907        1.47089
H          1.99627        0.46413        1.12899
H         -3.80047        1.26630       -1.48915
H         -2.50970        0.04232       -1.54107
H         -4.77769       -1.03927       -1.62369
H         -3.87235       -1.49996       -0.17971
H         -6.13177        0.35380       -0.27002
H         -5.83818       -0.86731        0.77600
H         -2.12695        1.65394        0.20220
H         -3.59280        1.16167        0.94832
C         -3.35087        0.42210       -0.95850
C         -4.37915       -0.66455       -0.67251
N         -2.81684        0.90613        0.33504
N         -5.39886       -0.13311        0.23436
H         -2.20294        0.12579        0.75794
H          5.35966       -0.12791       -0.00029
H          4.86987       -0.76165       -1.55978
H          4.22313        1.54880       -1.46184
H          2.75413        0.54712       -1.46117
H          3.90424        1.76077        0.95342
H          2.54795        2.24050        0.16834
H          3.58890       -1.29207        1.02603
H          2.93124       -1.72786       -0.38849
C          4.48077       -0.41156       -0.59606
C          3.63107        0.83309       -0.87235
N          3.81876       -1.52283        0.06585
N          3.13272        1.43537        0.37702
