31
1sa2eda_17.log	Energy: -678445.4029028
S          1.62865       -1.16098       -0.06249
O          2.95264       -0.54285        0.00854
O          0.84246       -1.15383        1.17490
O          0.83586       -0.68245       -1.23540
O          1.86999       -2.75074       -0.34357
H          2.56579       -2.82476       -1.00973
H         -0.85334        2.68640        1.06986
H         -0.20360        1.04531        1.34068
H          1.56106        2.81908        1.66050
H          1.96374        1.68962        0.37113
H          1.11585        4.45963        0.03554
H          2.25926        3.61162       -0.76964
H         -1.59230        1.34503       -0.69576
H         -0.29710        2.32462       -1.28478
C         -0.14582        1.93322        0.70854
C          1.27358        2.48998        0.65464
N         -0.55915        1.55099       -0.66523
N          1.33706        3.55085       -0.35588
H         -0.02750        0.68952       -0.96392
H         -4.48584       -0.92604       -0.21782
H         -3.59292       -0.67010       -1.72602
H         -2.61845       -2.49531       -0.31226
H         -1.46738       -1.21444       -0.65410
H         -2.70623       -1.75685        1.90667
H         -1.16540       -1.31841        1.52443
H         -4.06572        1.41619       -0.54657
H         -3.18266        0.86060        0.72799
C         -3.53092       -0.57470       -0.63716
C         -2.38748       -1.44063       -0.10690
N         -3.27711        0.83224       -0.28785
N         -2.14786       -1.15898        1.30798
