27
1sa2dma_15.log	Energy: -608975.3157776
S         -0.04474       -0.53069        0.02887
O          0.55534        0.62216       -0.72704
O         -0.98759       -1.30408       -0.77431
O          1.03245       -1.32001        0.68562
O         -0.84950        0.11047        1.24232
H         -1.79129        0.37585        0.92472
N          3.03619        0.24011       -0.01917
C          3.62190        1.15882        0.97052
C          3.95548       -0.24751       -1.06069
H          2.54778       -0.56126        0.45268
H          3.99626        2.05075        0.46493
H          2.84438        1.43892        1.68162
H          4.44035        0.66258        1.49558
H          4.34114        0.59841       -1.63243
H          4.78328       -0.78886       -0.59882
H          3.40039       -0.91444       -1.72071
H          2.15833        0.65551       -0.45261
N         -3.26556        0.71466        0.35181
C         -3.99422       -0.55453        0.27165
C         -3.09260        1.34646       -0.95955
H         -3.75821        1.35112        0.97125
H         -3.39213       -1.25552       -0.31123
H         -4.12141       -0.96499        1.27621
H         -4.98141       -0.44047       -0.19942
H         -2.48102        0.68925       -1.58253
H         -4.05240        1.52956       -1.46420
H         -2.56154        2.29347       -0.83980
