27
1sa2dma_13.log	Energy: -608973.6923579
S          0.10126       -0.87451       -0.12419
O          1.19083       -1.34672       -0.96027
O         -0.89314       -1.81212        0.37327
O          0.70266       -0.13416        1.12425
O         -0.63924        0.26723       -0.91327
H          1.62489        0.33349        0.87242
H         -1.64685        0.32349       -0.56460
N          2.93929        0.95290        0.46947
C          2.74480        1.62774       -0.82056
C          3.94066       -0.11879        0.39923
H          3.22280        1.63566        1.16685
H          2.38056        0.89296       -1.54197
H          1.98613        2.40579       -0.71263
H          3.67461        2.07352       -1.19750
H          3.56866       -0.88871       -0.28029
H          4.91123        0.24789        0.03965
H          4.06613       -0.56298        1.38903
N         -3.02119        0.23697        0.02461
C         -4.09958        0.70029       -0.84679
C         -3.01107        0.88056        1.34045
H         -3.07515       -0.77206        0.15201
H         -3.95979        1.76529       -1.05213
H         -4.05849        0.15945       -1.79450
H         -5.09084        0.55983       -0.39503
H         -2.82818        1.95106        1.21150
H         -3.96128        0.74773        1.87420
H         -2.19894        0.45794        1.93556
