31
1sa2eda_92.log	Energy: -678441.4334913
S          0.13478       -0.20367        0.44063
O          0.93321        0.89372        1.02965
O         -0.42292        0.12297       -0.88116
O          0.92450       -1.47869        0.45296
O         -1.08790       -0.51153        1.40119
H         -1.86237        0.11066        1.14523
H          5.02929       -0.48392       -0.54205
H          3.77109       -1.59265       -1.16418
H          3.78304        0.71694       -2.25895
H          2.23357        0.27793       -1.54208
H          3.74228        2.50881       -0.87849
H          2.43363        1.91904       -0.04578
H          3.94278       -1.39565        1.33871
H          3.35751        0.15940        1.14486
C          3.95387       -0.65803       -0.62990
C          3.27275        0.53505       -1.30867
N          3.39187       -0.78662        0.73985
N          3.35114        1.69510       -0.42507
H          2.35940       -1.14028        0.68896
H         -3.90713        0.60030       -1.88560
H         -5.16729       -0.50597       -1.36908
H         -5.06974        1.35484        0.14830
H         -4.60479       -0.12393        1.00534
H         -2.55141        1.65142       -0.11096
H         -3.13953        1.84420        1.40576
H         -2.25553       -0.89036       -1.18841
H         -3.33077       -1.89164       -0.45113
C         -4.16676       -0.13506       -1.11315
C         -4.28653        0.58745        0.23403
N         -3.21633       -1.22460       -1.20642
N         -3.00318        1.16632        0.66229
