31
1sa2eda_82.log	Energy: -678443.2141121
S         -0.09496       -0.97798        0.08750
O         -0.17149        0.42400       -0.41822
O          0.00785       -1.05380        1.54455
O         -1.22756       -1.77375       -0.48911
O          1.19278       -1.64443       -0.54391
H          2.01767       -1.29195       -0.03462
H         -4.73091        0.78902       -0.53800
H         -4.33378       -0.84477        0.07225
H         -3.93934        1.03109        1.75378
H         -2.50372        0.05699        1.43621
H         -2.69394        2.79090        1.08412
H         -1.48909        1.81160        0.50547
H         -3.39859       -0.24747       -2.18477
H         -2.41329        0.83241       -1.37272
C         -3.92833        0.13555       -0.18658
C         -3.19465        0.78253        0.99231
N         -2.95385       -0.04013       -1.29465
N         -2.49328        1.97487        0.52300
H         -2.23195       -0.82115       -1.03994
H          4.79432        0.82715        0.57350
H          4.68007       -0.42595       -0.68539
H          3.94417        1.82561       -1.47096
H          2.67698        0.60062       -1.61524
H          2.38237        2.97558       -0.34860
H          1.44020        1.65582       -0.08011
H          3.72634       -1.23517        1.36170
H          2.69729        0.03473        1.42924
C          4.09743        0.24100       -0.04090
C          3.26124        1.19065       -0.89632
N          3.20475       -0.57786        0.79078
N          2.39493        2.00997       -0.04820
