31
1sa2eda_65.log	Energy: -678441.9992350
S          2.07829       -0.92713       -0.00899
O          3.04503       -1.94735       -0.39005
O          1.27604       -0.35454       -1.13146
O          1.22054       -1.23662        1.14219
O          2.97827        0.38304        0.43047
H          3.82334        0.04347        0.75090
H         -1.12214       -2.05321        0.71567
H         -1.42563       -0.48135        1.42813
H         -3.46643       -1.92912        1.59147
H         -3.77702       -0.50718        0.58732
H         -3.26809       -3.20744       -0.43435
H         -4.55575       -2.24120       -0.72268
H         -0.33373       -0.49218       -0.84966
H         -1.85566       -1.01383       -1.41426
C         -1.72327       -1.14755        0.61740
C         -3.21651       -1.44732        0.63690
N         -1.37637       -0.50018       -0.66931
N         -3.55890       -2.24103       -0.54369
H         -1.70682        0.50428       -0.66536
H         -1.33510        3.90869        0.68080
H         -1.74757        2.44128        1.58603
H          0.74049        2.84884        1.39871
H          0.24146        1.28636        0.79197
H          1.33500        3.43783       -0.73339
H          1.25935        1.83094       -1.06340
H         -2.94311        2.63731       -0.55767
H         -1.48307        2.57205       -1.31788
C         -1.28560        2.81027        0.66357
C          0.17725        2.36092        0.59391
N         -2.00377        2.25822       -0.49627
N          0.72440        2.63073       -0.73479
