31
1sa2eda_119.log	Energy: -678436.7613067
S         -0.07692       -1.22213        0.34886
O         -0.85025       -0.91738        1.53793
O          1.00344       -2.19111        0.40707
O         -1.03832       -1.65785       -0.80344
O          0.52027        0.15096       -0.17594
H         -1.97619       -1.14911       -0.77263
H          1.45015       -0.03129       -0.63369
H          3.74301        2.05684       -1.02212
H          4.89985        1.86480        0.29794
H          4.92724       -0.22198       -0.76940
H          3.88479       -0.47868        0.64536
H          2.98928       -0.11841       -2.12591
H          2.76287       -1.41488       -1.14037
H          2.90183        2.87297        1.14266
H          2.00399        1.55637        0.74614
C          3.91366        1.54591       -0.05623
C          3.96648        0.04355       -0.31145
N          2.94071        1.87469        0.97596
N          2.84245       -0.39977       -1.16051
H         -4.68209        0.46037        0.56651
H         -3.27927       -0.34281        1.31791
H         -2.98255        2.09564        1.35550
H         -1.75988        1.32436        0.34532
H         -4.07115        2.83250       -0.62891
H         -2.49500        2.98279       -1.03985
H         -4.02414       -1.25263       -0.90199
H         -3.43281        0.13903       -1.55567
C         -3.60902        0.24787        0.46048
C         -2.82629        1.55449        0.41261
N         -3.34054       -0.51229       -0.77432
N         -3.21107        2.31598       -0.77912
