31
1sa2eda_53.log	Energy: -678442.0270462
S          2.15110       -0.54181        0.09019
O          2.67997        0.42884        1.04533
O          1.53736       -1.74043        0.67635
O          1.28543        0.05833       -0.96842
O          3.42914       -1.04883       -0.79701
H          4.15764       -1.20073       -0.18090
H         -0.70590       -1.91492        0.84586
H         -1.51789       -0.45170        1.40284
H         -3.03164       -2.44313        1.59925
H         -3.68893       -1.23354        0.48861
H         -2.31642       -3.69023       -0.34031
H         -3.83732       -3.21129       -0.71229
H         -0.27414       -0.42028       -0.84148
H         -1.64632       -1.27073       -1.39045
C         -1.53850       -1.23704        0.64419
C         -2.87980       -1.95994        0.62492
N         -1.30100       -0.61550       -0.68168
N         -2.90180       -2.87869       -0.51262
H         -1.80731        0.30957       -0.74776
H         -2.08068        3.76195        0.56329
H         -2.33815        2.25187        1.45574
H          0.05245        3.06273        1.51684
H         -0.10754        1.44263        0.87562
H          0.79280        3.73793       -0.53787
H          0.95713        2.13576       -0.88217
H         -3.31861        2.24987       -0.80870
H         -1.79295        2.40418       -1.40707
C         -1.85051        2.68681        0.57594
C         -0.33349        2.49257        0.66356
N         -2.34536        2.01781       -0.63836
N          0.29742        2.85801       -0.60215
