21
1sa2ma_15.log	Energy: -559653.1737524
S         -1.44056       -0.08717       -0.00711
O         -1.95626       -1.44823        0.06779
O         -0.70150        0.26529       -1.23878
O         -2.75041        0.88858       -0.08413
O         -0.69502        0.34425        1.20823
H         -3.44953        0.46431        0.43007
H          0.84892        1.02008        0.74222
N          1.54841        1.15619       -0.02277
H          2.17853        0.30906       -0.01183
C          2.26117        2.44203        0.03175
H          2.93796        2.52392       -0.81934
H          1.53825        3.25727        0.00172
H          2.83386        2.50107        0.95773
H          0.92119        1.05047       -0.84161
N          2.81761       -1.36918       -0.00226
H          3.38059       -1.60293       -0.81472
C          1.57582       -2.16973        0.00174
H          1.75784       -3.24977        0.00443
H          0.98136       -1.90964        0.88011
H          0.97883       -1.91380       -0.87607
H          3.38265       -1.59725        0.81035
