31
1sa2eda_87.log	Energy: -678443.6494970
S         -2.10247       -0.66523       -0.08302
O         -1.74505       -1.61488        0.98941
O         -0.99515       -0.55826       -1.10029
O         -3.42082       -0.81147       -0.66947
O         -2.05079        0.78141        0.67112
H         -1.65598        1.45163        0.04397
H          2.67374       -2.34764        1.14259
H          1.74446       -3.12347       -0.15080
H          3.79156       -2.20750       -1.10330
H          2.39816       -1.32316       -1.72892
H          4.21656       -0.33085        0.34561
H          3.86466        0.34233       -1.10078
H          0.24491       -1.75998        1.13481
H          1.18705       -0.38248        0.97113
C          2.11328       -2.16431        0.22054
C          2.99559       -1.50035       -0.82812
N          0.95535       -1.31389        0.53743
N          3.48129       -0.21145       -0.34365
H          0.35993       -1.06839       -0.30350
H          0.94400        3.38033        1.04629
H          2.36193        2.36461        0.73255
H          1.45635        2.81274       -1.37944
H          1.00690        1.14023       -1.02119
H         -0.79222        3.44700       -0.92404
H         -0.90531        2.08025       -1.82850
H          1.06248        1.50459        2.55242
H         -0.22977        1.24893        1.58065
C          1.26781        2.38215        0.71032
C          0.82863        2.17960       -0.73604
N          0.79019        1.31251        1.59385
N         -0.60217        2.44964       -0.93158
