33
1sa2tma_05.log	Energy: -658295.2378914
S          0.01762        1.39156       -0.00615
O          0.17009        0.90631       -1.37831
O          0.44507        0.20437        0.95786
O          0.70547        2.61072        0.35897
O         -1.48711        1.52810        0.35756
H         -2.01212        0.59968        0.18166
N          2.65264       -0.77589        0.06526
C          3.43000        0.35024       -0.46520
H          2.85055        0.84984       -1.24408
H          3.61946        1.07008        0.33427
H          4.38904        0.00912       -0.88337
C          3.37211       -1.46223        1.13746
H          3.60609       -0.74885        1.93112
H          2.74128       -2.25197        1.55370
H          4.30921       -1.91051        0.77334
C          2.26721       -1.69772       -1.00554
H          1.67292       -2.51352       -0.58416
H          1.65700       -1.15616       -1.73192
H          3.14888       -2.12590       -1.50598
H          1.36380       -0.19856        0.61395
N         -2.73653       -0.66014        0.02491
C         -2.86884       -1.21315        1.37569
H         -1.87376       -1.32667        1.81145
H         -3.44095       -0.52044        1.99711
H         -3.37863       -2.18773        1.36169
C         -4.04183       -0.37168       -0.57288
H         -4.58729        0.32869        0.06387
H         -3.89581        0.08999       -1.55195
H         -4.63907       -1.28766       -0.69230
C         -1.94206       -1.54609       -0.83345
H         -1.78265       -1.06671       -1.80090
H         -0.96594       -1.70312       -0.37067
H         -2.44446       -2.51457       -0.97484
