31
1sa2eda_29.log	Energy: -678445.4261144
S         -1.49211        1.37465       -0.12703
O         -1.79091        2.78178       -0.34033
O         -0.88105        0.66503       -1.27997
O         -0.80611        1.04971        1.13799
O         -2.95315        0.60795       -0.02864
H         -3.54192        1.18317        0.47682
H          0.78947       -2.75849        1.03501
H          0.22206       -1.09581        1.37046
H         -1.62208       -2.78090        1.67482
H         -1.97937       -1.59827        0.41760
H         -1.29663       -4.40350        0.00553
H         -2.39539       -3.47123       -0.76997
H          1.55004       -1.36576       -0.69527
H          0.22814       -2.29787       -1.29257
C          0.11256       -1.96002        0.71428
C         -1.33279       -2.44290        0.67209
N          0.51362       -1.54939       -0.65355
N         -1.46918       -3.47428       -0.36102
H         -0.00931       -0.67310       -0.92851
H          4.51214        0.81663       -0.20455
H          3.61534        0.60114       -1.71709
H          2.67726        2.43185       -0.28681
H          1.50529        1.17572       -0.64356
H          2.74152        1.68181        1.92511
H          1.19881        1.25413        1.53859
H          4.02886       -1.51210       -0.57059
H          3.17164       -0.94987        0.71843
C          3.54978        0.49412       -0.62965
C          2.42677        1.38040       -0.09050
N          3.25916       -0.90973       -0.29751
N          2.18065        1.09093        1.32199
