31
1sa2eda_128.log	Energy: -678440.7300469
S         -2.27471       -0.45855        0.01615
O         -2.56119        0.73089       -0.80437
O         -1.05268       -1.18337       -0.39131
O         -2.30958       -0.18435        1.46540
O         -3.45400       -1.53429       -0.29991
H         -4.29998       -1.07900       -0.19465
H         -0.92453        2.00529        1.01256
H          0.55658        2.47411        1.87484
H          0.42398        3.51906       -0.34379
H          1.84642        2.47497       -0.21887
H         -0.65212        1.47945       -1.43126
H          0.60139        2.11070       -2.28615
H         -0.06952        0.11492        1.98712
H          0.14350       -0.07770        0.39755
C          0.16498        1.92320        1.01664
C          0.75051        2.47022       -0.27765
N          0.48264        0.48331        1.20876
N          0.35602        1.65034       -1.41664
H          1.51633        0.28576        1.33176
H          4.39544       -1.72464        0.31851
H          2.99592       -2.25717        1.27041
H          2.74112       -2.46203       -1.25795
H          1.43863       -1.61209       -0.46275
H          3.14997       -0.57705       -2.42909
H          1.88514        0.17457       -1.67830
H          3.83578       -0.08867        1.98791
H          3.54864        0.49805        0.47781
C          3.34791       -1.49920        0.56304
C          2.50209       -1.54059       -0.71562
N          3.22484       -0.16723        1.18116
N          2.74926       -0.34850       -1.52915
