31
1sa2eda_39.log	Energy: -678443.1788210
S         -0.09328       -0.81122       -0.04784
O          0.06513        0.34778       -0.96213
O         -0.20985       -0.39860        1.36287
O         -1.23411       -1.66822       -0.50507
O          1.17226       -1.74221       -0.18223
H          1.95939       -1.30030        0.32672
H         -4.65426        1.05901       -0.66659
H         -4.55294       -0.71409       -0.47830
H         -4.27971        0.55268        1.71868
H         -2.90635       -0.48773        1.32320
H         -2.85060        2.33541        1.57065
H         -1.59989        1.26521        1.35809
H         -3.11868        0.22568       -2.30202
H         -2.24385        0.99957       -1.10018
C         -4.00456        0.22580       -0.38522
C         -3.44028        0.42067        1.02777
N         -2.85344        0.19556       -1.32161
N         -2.51929        1.55114        1.02623
H         -2.22809       -0.66568       -1.11983
H          4.83070        0.71073        0.72565
H          4.66987       -0.75737       -0.26811
H          4.20224        1.35181       -1.53746
H          2.84199        0.22324       -1.54279
H          2.75701        2.83955       -0.67020
H          1.58967        1.68953       -0.48135
H          3.51025       -0.99157        1.85013
H          2.57558        0.30754        1.48612
C          4.11814        0.07455        0.18266
C          3.42982        0.89673       -0.90723
N          3.09473       -0.47341        1.08283
N          2.56714        1.91525       -0.30778
