31
1sa2eda_72.log	Energy: -678441.5871997
S          1.47384       -1.73346       -0.10784
O          2.16549       -2.99504       -0.32057
O          0.33841       -1.81766        0.85943
O          2.57319       -0.75369        0.64199
O          1.10302       -0.94788       -1.29192
H          3.14458       -1.32607        1.16942
H         -1.27746        0.43659       -0.46737
H         -2.95910       -1.05932        1.49223
H         -2.25924        0.55846        1.65288
H         -4.69705        0.70474        1.12784
H         -3.72090        1.39897       -0.17114
H         -5.02443       -1.22274       -0.25552
H         -5.11116        0.00051       -1.34016
H         -0.96557       -1.06574        0.24665
H         -2.23993       -0.91512       -0.87860
C         -2.72598       -0.13718        0.95192
C         -3.98327        0.46099        0.32928
N         -1.75155       -0.45236       -0.10818
N         -4.50183       -0.46242       -0.67727
H         -0.10404        2.58045        1.12925
H          0.68769        0.99676        1.06319
H          2.39816        2.70569        1.33615
H          2.54221        1.95777       -0.25549
H          1.45080        4.62157        0.29341
H          2.61926        4.19779       -0.76601
H         -0.17940        2.52770       -1.27856
H          0.48024        1.02219       -1.28160
C          0.55326        1.94057        0.52502
C          1.91217        2.61364        0.35321
N         -0.11793        1.66054       -0.75015
N          1.75073        3.89156       -0.34427
