31
1sa2eda_70.log	Energy: -678442.4849712
S          2.40226       -0.03257        0.03792
O          2.45123        1.24672       -0.68954
O          1.58106       -0.02430        1.24878
O          2.09992       -1.18061       -0.86293
O          3.91106       -0.30101        0.58856
H          4.51930       -0.17563       -0.15176
H         -0.46548       -2.76531        0.56968
H         -0.43171       -1.16004        1.30097
H         -2.64431       -2.33343        1.68513
H         -2.83876       -0.83203        0.75636
H         -2.95099       -3.54569       -0.34017
H         -4.00247       -2.31031       -0.53307
H          0.41070       -1.31052       -0.99322
H         -1.21107       -1.63775       -1.47601
C         -0.92319       -1.77197        0.54397
C         -2.43175       -1.84842        0.72322
N         -0.61003       -1.18350       -0.78324
N         -3.02074       -2.53725       -0.43022
H         -0.76771       -0.13786       -0.81990
H         -2.66347        3.37252       -0.32535
H         -2.88419        2.81974        1.33713
H         -0.51027        3.09910        0.76243
H         -0.86622        1.43199        1.21527
H         -0.78538        2.29237       -1.58831
H          0.49241        1.65914       -0.80835
H         -4.29484        1.55332       -0.06467
H         -3.06171        1.08925       -1.02492
C         -2.52824        2.50990        0.34984
C         -1.04303        2.19216        0.44783
N         -3.30306        1.33976       -0.07067
N         -0.53313        1.66610       -0.82675
