31
1sa2eda_59.log	Energy: -678442.2747430
S          0.90382       -1.85560        0.04653
O          1.53854       -3.10830        0.41270
O          0.74776       -0.86397        1.13146
O          1.93627       -1.12152       -1.03100
O         -0.32983       -1.95100       -0.77070
H          2.83385       -1.21508       -0.68419
H         -1.13644       -0.53604       -0.43410
H         -2.94421        1.81156       -0.79161
H         -2.69971        0.45889       -1.91515
H         -4.81508        0.14679       -0.62547
H         -3.64278       -1.11812       -0.24791
H         -4.39567        1.09583        1.49575
H         -4.12973       -0.47884        1.86581
H         -0.66417        1.06514       -0.56793
H         -1.55155        0.51555        0.78995
C         -2.75772        0.73542       -0.86009
C         -3.85086       -0.04920       -0.13860
N         -1.45971        0.44504       -0.22738
N         -3.82195        0.28838        1.28217
H          2.39023        3.15197       -1.06469
H          0.75092        3.77782       -0.77599
H          2.03063        3.59601        1.29859
H          0.61454        2.54227        1.34126
H          3.01878        1.69521        1.98175
H          1.99129        0.69100        1.20230
H          0.71190        1.89815       -2.26200
H          1.41540        0.93289       -1.16135
C          1.41264        2.91711       -0.62296
C          1.60284        2.68272        0.87150
N          0.79844        1.74373       -1.26141
N          2.50857        1.56578        1.11688
