31
1sa2eda_77.log	Energy: -678444.5950095
S         -2.22693       -0.30805       -0.04365
O         -1.56058        0.62141       -0.96680
O         -2.06018       -1.73372       -0.36231
O         -1.95292       -0.00256        1.38375
O         -3.80833        0.02365       -0.26741
H         -4.31522       -0.65152        0.20264
H         -0.58349        2.18829        0.42968
H          0.50718        2.76786        1.70975
H          1.10042        3.63951       -0.53078
H          2.42530        2.70630        0.17345
H          0.49895        1.39737       -1.61676
H          1.87028        2.10623       -2.18453
H         -0.16839        0.39261        1.70737
H          0.73866        0.05364        0.36855
C          0.43700        2.14779        0.81307
C          1.41503        2.62450       -0.24877
N          0.66637        0.73289        1.19868
N          1.44655        1.68295       -1.36683
H          1.54469        0.59045        1.70219
H          3.61731       -1.75962       -1.11105
H          4.05319       -2.17894        0.54695
H          1.97627       -3.28554       -0.19604
H          1.73034       -2.27191        1.23204
H          1.10449       -1.30942       -1.47731
H         -0.01147       -1.88596       -0.43162
H          4.31034        0.11280        0.40078
H          2.87937        0.34702       -0.36580
C          3.32759       -1.62382       -0.05576
C          1.95144       -2.24520        0.15836
N          3.35140       -0.21406        0.34928
N          0.91030       -1.44754       -0.48975
