21
1sa2ma_21.log	Energy: -559642.3110427
S          1.18824        0.22010        0.12067
O          1.07161        1.53974        0.71760
O          1.09512       -0.94016        1.03629
O          0.30863        0.01319       -1.07125
O          2.71170        0.10186       -0.44550
H          2.99744        0.98965       -0.69889
N         -0.64261       -2.34573       -0.37845
H          0.08016       -2.16999        0.36146
H         -0.43114       -1.51054       -0.98567
C         -2.01017       -2.27393        0.18242
H         -2.74128       -2.34088       -0.62273
H         -2.15740       -3.08405        0.89610
H         -2.11005       -1.31346        0.68715
H         -0.45555       -3.21413       -0.87314
N         -1.90783        2.24579       -0.65511
H         -1.25227        1.63354       -1.13379
C         -2.51327        1.52022        0.45375
H         -1.78939        1.05450        1.14428
H         -3.14026        2.19731        1.04165
H         -3.17677        0.74097        0.05940
H         -1.33808        3.00028       -0.28586
