31
1sa2eda_42.log	Energy: -678441.2061195
S         -0.05783       -0.94699       -0.06141
O          0.73241       -1.27519       -1.23427
O         -1.32680       -1.62455        0.15914
O          0.80322       -1.16026        1.22770
O         -0.31216        0.60437       -0.09499
H          1.82479       -0.91265        1.07216
H         -1.19386        0.86458        0.45374
H         -4.40717        1.97753        0.60603
H         -3.05025        2.57005       -0.38567
H         -4.51640        0.91195       -1.57116
H         -2.82766        0.40376       -1.48190
H         -4.93014       -1.09371       -0.64603
H         -3.38641       -1.29652       -0.11876
H         -2.36603        1.89573        1.86323
H         -2.85547        0.36394        1.53142
C         -3.46546        1.69278        0.12081
C         -3.73322        0.57381       -0.88529
N         -2.48502        1.21970        1.11479
N         -4.15651       -0.63628       -0.18309
H          4.77059       -0.36956       -0.61660
H          3.21248       -1.06299       -1.13593
H          3.40783        1.26589       -1.89980
H          2.08555        1.08391       -0.74680
H          4.67466        2.32786       -0.19037
H          3.17095        2.89364        0.11455
H          3.82011       -1.42039        1.26572
H          3.56779        0.19471        1.47407
C          3.68046       -0.32377       -0.48241
C          3.17425        1.06714       -0.84498
N          3.30714       -0.61778        0.91323
N          3.73641        2.05430        0.08153
