31
1sa2eda_13.log	Energy: -678445.1786623
S          2.46618        0.13979       -0.04827
O          1.35214       -0.78307        0.24948
O          3.48407       -0.35525       -0.96337
O          1.96786        1.50414       -0.37153
O          3.19024        0.28122        1.41544
H          4.08012        0.62476        1.26206
H         -1.62763        3.15997        0.10472
H         -1.59575        2.51015       -1.55311
H         -3.87921        2.40362       -0.43498
H         -3.28690        0.84702       -1.02181
H         -4.16967        1.12655        1.43358
H         -2.80763        0.21581        1.21076
H          0.28855        1.58960       -0.24267
H         -0.82006        1.05450        0.88231
C         -1.74801        2.25917       -0.50074
C         -3.12164        1.63290       -0.26722
N         -0.70793        1.28937       -0.10524
N         -3.21358        1.14874        1.10384
H         -0.82036        0.37825       -0.64233
H         -0.67227       -3.18524        0.36116
H         -2.37057       -3.15583        0.84300
H         -2.12360       -2.94483       -1.56624
H         -2.92441       -1.52895       -0.86496
H         -0.02079       -1.46656       -1.32448
H         -1.08462       -1.06471       -2.51205
H         -1.41116       -1.74740        2.33388
H         -0.34347       -1.12914        1.27605
C         -1.55601       -2.53677        0.45350
C         -1.96604       -2.05915       -0.93513
N         -1.31754       -1.42153        1.37744
N         -0.97147       -1.14192       -1.50678
