27
1sa2dma_22.log	Energy: -608968.4228823
S          1.66136       -0.48154        0.00579
O          1.02638        0.10662       -1.20749
O          3.11501       -0.50499       -0.02282
O          1.02895        0.05021        1.23388
O          1.18948       -2.05046        0.01050
H          1.89909       -2.56005       -0.40157
N         -0.46616        1.94863        0.02592
C         -1.92249        2.17994       -0.06809
C          0.37087        3.16700        0.04558
H         -0.21190        1.35704        0.84003
H         -2.13573        2.70547       -1.00074
H         -2.42187        1.20246       -0.04913
H         -2.24130        2.79184        0.77808
H          0.21803        3.71890       -0.88265
H          0.08894        3.78571        0.89881
H          1.41531        2.86687        0.13129
H         -0.11231        1.31903       -0.73373
N         -2.77433       -0.96662        0.01387
C         -2.17810       -1.53823        1.21920
C         -2.17577       -1.49183       -1.21077
H         -3.76858       -1.17037        0.00908
H         -1.12438       -1.25216        1.28200
H         -2.69195       -1.14662        2.10213
H         -2.22556       -2.63903        1.24566
H         -1.11946       -1.21106       -1.25401
H         -2.23152       -2.59026       -1.28449
H         -2.68071       -1.05947       -2.08004
