27
1sa2dma_04.log	Energy: -608977.3791724
S         -1.89503       -0.06133        0.01452
O         -3.33201       -0.24304        0.12188
O         -1.07974       -0.20973        1.22524
O         -1.35902       -1.35257       -0.89735
O         -1.48207        1.12982       -0.78036
H         -2.05352       -1.56865       -1.53229
H          0.07985        1.45305       -0.36985
N          1.59960       -1.26595       -0.05186
C          1.82151       -1.69021        1.33022
C          2.60001       -1.78274       -0.97981
H          0.67102       -1.57308       -0.34188
H          2.74394       -1.23676        1.71044
H          0.97746       -1.35473        1.93586
H          1.91561       -2.78174        1.42481
H          3.57850       -1.34942       -0.74586
H          2.69621       -2.87765       -0.93476
H          2.33516       -1.50054       -2.00231
N          1.09383        1.45644       -0.07493
C          1.20114        2.00164        1.29181
C          1.91051        2.15136       -1.08229
H          1.34977        0.41158       -0.06046
H          0.90487        3.05253        1.29235
H          0.52734        1.42666        1.92748
H          2.23186        1.90881        1.64189
H          1.61954        3.20216       -1.13673
H          2.96720        2.07771       -0.81555
H          1.74554        1.68182       -2.05286
