31
1sa2eda_60.log	Energy: -678442.4241593
S          0.24362       -1.04990        0.18737
O          0.90250       -0.60376        1.42031
O         -0.75201       -2.12449        0.33821
O         -0.37934        0.11570       -0.55357
O          1.36498       -1.62315       -0.77191
H          2.26608       -1.16154       -0.57182
H         -4.32280       -0.74870        0.74318
H         -2.66733       -0.48737        1.34409
H         -3.99971        1.64214        1.43786
H         -2.62722        1.76421        0.33125
H         -5.43765        1.50719       -0.43757
H         -4.29616        2.52103       -1.02158
H         -2.65017       -1.68095       -0.73052
H         -3.41937       -0.35983       -1.48962
C         -3.38198       -0.21990        0.56407
C         -3.59947        1.28487        0.48059
N         -2.81550       -0.67271       -0.72765
N         -4.45365        1.58418       -0.67111
H         -1.80871       -0.25666       -0.81191
H          4.80332        1.32440       -0.43431
H          3.90485        0.75709       -1.86439
H          2.92342        2.79086       -0.82212
H          1.78012        1.44125       -0.86987
H          2.25362        2.81606        1.33096
H          1.92678        1.21231        1.39752
H          4.44415       -1.05981       -0.36516
H          3.59119       -0.34616        0.83529
C          3.86079        0.87632       -0.77647
C          2.70679        1.80259       -0.40232
N          3.65324       -0.45152       -0.17702
N          2.59187        1.90366        1.05310
