33
1sa2tma_08.log	Energy: -658289.4595394
S          3.17108       -0.11973        0.13902
O          4.40841        0.04940        0.88426
O          2.27949       -1.20446        0.57687
O          2.39352        1.13652       -0.09465
O          3.62926       -0.50985       -1.39262
H          4.50274       -0.91602       -1.32574
N         -0.15463        0.58163       -0.03991
C         -0.47552        0.13779        1.33783
H          0.15078       -0.72492        1.56567
H         -0.23375        0.94725        2.02798
H         -1.53917       -0.10397        1.38467
C         -0.88423        1.81450       -0.40640
H         -0.63543        2.59639        0.31214
H         -0.56693        2.12872       -1.40158
H         -1.95608        1.60553       -0.39175
C         -0.37602       -0.50530       -1.02528
H         -0.06109       -0.15069       -2.00769
H          0.24563       -1.35202       -0.73303
H         -1.43761       -0.75972       -1.02588
H          0.89726        0.81069       -0.06251
N         -3.75676       -0.22333        0.00840
C         -4.40583        0.62643        0.99395
H         -3.95334        0.46771        1.97787
H         -4.27256        1.67916        0.72527
H         -5.48984        0.42848        1.07901
C         -4.29108        0.01281       -1.32356
H         -4.15718        1.06429       -1.59657
H         -3.75397       -0.60027       -2.05395
H         -5.36741       -0.22665       -1.39916
C         -3.86231       -1.62734        0.37492
H         -3.32463       -2.24416       -0.35173
H         -3.41072       -1.79115        1.35823
H         -4.90984       -1.97727        0.41532
