31
1sa2eda_101.log	Energy: -678440.8040804
S          0.28595       -1.83575       -0.04575
O         -0.71389       -2.86715        0.13401
O          1.64370       -2.16667       -0.42718
O         -0.23615       -0.78467       -1.10226
O          0.30688       -1.00771        1.30306
H         -1.27722       -0.59708       -0.97723
H          1.01484       -0.25499        1.29521
H          3.39939        2.32157        0.55246
H          3.72084        0.57413        0.53795
H          3.09436        1.51924       -1.71534
H          2.10970        0.16377       -1.17602
H          1.22524        2.78162       -1.75010
H          0.36162        1.42033       -1.44728
H          2.27235        1.17007        2.36074
H          1.19762        1.83142        1.30773
C          2.94122        1.33172        0.41643
C          2.33856        1.21440       -0.98244
N          1.89295        1.09516        1.42161
N          1.10946        2.01312       -1.10122
H         -3.91463        0.62562        0.78633
H         -2.62561       -0.48512        1.30129
H         -2.04981        1.86424        1.84416
H         -0.90370        1.11542        0.72806
H         -2.83782        3.17856        0.04563
H         -1.25390        3.02401       -0.36436
H         -3.32928       -0.97023       -0.95635
H         -2.91218        0.56417       -1.42058
C         -2.87644        0.31715        0.60190
C         -1.92501        1.49016        0.81802
N         -2.70606       -0.19108       -0.76878
N         -2.11652        2.51340       -0.20947
