33
1sa2tma_07.log	Energy: -658292.9464715
S         -2.09938       -0.67012       -0.09862
O         -3.29638       -1.05141       -0.83170
O         -0.93027       -0.28626       -0.94630
O         -2.28241        0.28810        1.00178
O         -1.54489       -2.05705        0.59287
H         -2.31518       -2.61043        0.77485
N          0.17066        1.91535       -0.00779
C          1.33860        2.26195       -0.84802
H          2.07538        1.46555       -0.72958
H          1.01746        2.32727       -1.88847
H          1.74754        3.22162       -0.52151
C         -0.92543        2.90700       -0.12551
H         -1.21003        2.99022       -1.17511
H         -1.77404        2.54114        0.45322
H         -0.57755        3.87319        0.24866
C          0.55872        1.68953        1.40653
H         -0.31834        1.31787        1.93701
H          1.35135        0.94095        1.41192
H          0.91209        2.63071        1.83603
H         -0.22348        0.99038       -0.37320
N          2.49792       -0.78458       -0.00165
C          3.93163       -0.64866        0.19292
H          4.34499        0.04709       -0.54533
H          4.13692       -0.25067        1.19204
H          4.46525       -1.61211        0.08988
C          1.91638       -1.66980        1.00011
H          2.10402       -1.27141        2.00335
H          0.83708       -1.74733        0.85014
H          2.34818       -2.68668        0.95291
C          2.19323       -1.26559       -1.34410
H          1.10996       -1.32724       -1.47237
H          2.59411       -0.56766       -2.08787
H          2.63718       -2.25954       -1.53749
