31
1sa2eda_15.log	Energy: -678445.3721046
S          1.39839       -1.37892        0.03560
O          1.47410       -0.47903       -1.13312
O          2.67287       -1.88935        0.51599
O          0.49050       -0.82180        1.07559
O          0.53767       -2.68562       -0.46357
H          1.15349       -3.28507       -0.90476
H          0.00941        3.61599        0.22242
H          0.09115        2.67218        1.73580
H          2.35577        3.43555        0.89336
H          2.23194        1.68309        1.05972
H          2.96324        2.96877       -1.22502
H          2.34015        1.44114       -1.19286
H         -1.36703        1.64005       -0.03498
H          0.06521        1.47169       -0.94284
C          0.36520        2.68883        0.67820
C          1.87511        2.54414        0.48006
N         -0.31605        1.55994        0.00573
N          2.16710        2.41307       -0.94417
H         -0.08142        0.65525        0.48373
H         -4.54441       -0.13270       -0.61060
H         -3.40658        0.43274       -1.84571
H         -2.89062       -1.88192       -1.00054
H         -1.55638       -0.76695       -0.81673
H         -3.11757       -1.93141        1.30107
H         -1.55056       -1.42463        1.27820
H         -3.80473        2.09471       -0.09720
H         -3.19784        1.03217        1.00629
C         -3.50254        0.17285       -0.78633
C         -2.56367       -0.98972       -0.45099
N         -3.13998        1.33950        0.03451
N         -2.49867       -1.19082        0.99483
