31
1sa2eda_19.log	Energy: -678444.9540955
S          0.90467        1.63846       -0.00818
O         -0.56394        1.55967        0.18053
O          1.68687        1.39835        1.20884
O          1.35763        0.86343       -1.17693
O          1.10861        3.21387       -0.37934
H          2.05177        3.40929       -0.30241
H         -3.06679       -2.05759       -0.48013
H         -1.89618       -1.97768        0.86906
H         -4.09749       -0.65925        1.20168
H         -2.59427        0.22663        1.49700
H         -4.51061        1.10052       -0.14915
H         -2.93170        1.47447       -0.35968
H         -1.81869       -0.52803       -1.66562
H         -0.95468       -0.00322       -0.37265
C         -2.41712       -1.40079        0.10384
C         -3.20736       -0.24546        0.71914
N         -1.38366       -0.85362       -0.80320
N         -3.59596        0.70524       -0.32401
H         -0.57609       -1.51035       -1.01446
H          2.44109       -1.02347        0.55301
H          2.56335       -2.44252        1.58836
H          2.70874       -3.19263       -0.65404
H          1.13088       -3.72006       -0.05029
H          1.43189       -1.22020       -1.56982
H          1.09261       -2.66147       -2.28945
H          0.37846       -2.12244        2.22886
H          0.74656       -0.56991        1.85410
C          1.90943       -1.92547        0.87162
C          1.71768       -2.83782       -0.33578
N          0.63857       -1.50501        1.46729
N          1.01208       -2.14128       -1.42168
