31
1sa2eda_83.log	Energy: -678442.0686124
S          0.14927       -0.67591       -0.23882
O          0.59545        0.18929        0.88632
O         -0.43680        0.06832       -1.35253
O          1.26597       -1.59140       -0.65608
O         -0.93647       -1.67317        0.33988
H         -1.71846       -1.13389        0.73626
H          5.06596        0.30501        0.24256
H          4.39413       -0.59398       -1.15026
H          3.99758        1.90239       -1.26175
H          2.50410        0.96483       -1.30024
H          3.06923        2.94019        0.51220
H          1.91304        1.77032        0.71154
H          3.86261       -1.54109        1.10259
H          2.91808       -0.18826        1.35572
C          4.14923        0.01596       -0.27760
C          3.34560        1.26025       -0.66234
N          3.32718       -0.80827        0.64503
N          2.90366        1.94396        0.54899
H          2.46760       -1.23868        0.10845
H         -3.61133        1.78010        1.21706
H         -1.98367        1.48071        0.56520
H         -3.58939        1.76753       -1.26970
H         -2.91837        0.13750       -1.25910
H         -5.62113        0.89379       -0.41130
H         -5.16075       -0.30016       -1.42950
H         -2.67746       -0.08610        2.35799
H         -3.80339       -0.68325        1.30811
C         -2.98749        1.05930        0.66670
C         -3.57944        0.81822       -0.71622
N         -2.89518       -0.22524        1.37650
N         -4.90272        0.19968       -0.58747
