31
1sa2eda_36.log	Energy: -678443.4500557
S         -2.67130       -0.01480        0.05187
O         -4.07017       -0.01846        0.44403
O         -2.30638        1.06008       -0.91258
O         -1.66089       -0.15486        1.11349
O         -2.43864       -1.42005       -0.79898
H         -3.24921       -1.59026       -1.29554
H          0.35624        3.02039        0.35389
H          0.06711        1.56884        1.33647
H          2.40882        2.52515        1.67439
H          2.41606        0.86458        1.07193
H          3.24440        3.19995       -0.39216
H          3.73177        1.62630       -0.48146
H         -0.66186        1.25261       -0.92206
H          0.95861        1.56247       -1.44924
C          0.67076        1.98811        0.52933
C          2.16703        1.89631        0.80890
N          0.36739        1.21044       -0.69411
N          2.92773        2.23801       -0.39398
H          0.59199        0.19009       -0.53103
H          2.90526       -2.97667       -0.76496
H          3.89286       -2.51735        0.62568
H          1.60725       -2.96305        1.31758
H          2.01816       -1.26991        1.60670
H          0.41587       -2.22153       -0.66673
H         -0.12573       -1.36476        0.60199
H          4.34621       -1.04624       -1.16932
H          2.78064       -0.62236       -1.31292
C          3.08102       -2.17761       -0.02499
C          1.82589       -2.00755        0.82051
N          3.48775       -0.91363       -0.64435
N          0.69951       -1.52492        0.01770
