31
1sa2eda_106.log	Energy: -678439.6359967
S         -2.27467       -0.35217        0.18096
O         -1.72723       -1.30776        1.14783
O         -1.93365        1.06930        0.44760
O         -2.01708       -0.70953       -1.22669
O         -3.89020       -0.36851        0.39828
H         -4.13829       -1.27646        0.61579
H          1.92689        2.50345       -1.43571
H          0.44320        3.46558       -1.19812
H          1.73197        3.59614        0.81135
H          0.30405        2.60848        1.15243
H          2.55787        1.78047        1.94513
H          1.74902        0.66630        1.09056
H         -0.15195        1.39016       -2.19303
H          0.61249        0.44337       -1.03335
C          0.98636        2.57066       -0.88330
C          1.26285        2.62756        0.61341
N          0.14876        1.39432       -1.22048
N          2.19313        1.58002        1.02066
H         -0.72639        1.37597       -0.62674
H          2.00226       -3.03469       -0.79755
H          2.29946       -1.85541       -2.07762
H          4.19199       -1.93352       -0.52251
H          3.41259       -0.33802       -0.48253
H          2.99497       -2.41224        1.54562
H          3.71459       -0.95627        1.73579
H          0.06419       -1.60942       -1.17427
H          0.65058       -1.35752        0.30616
C          2.09966       -1.95776       -1.00576
C          3.27983       -1.39390       -0.22456
N          0.87234       -1.23065       -0.68142
N          3.00408       -1.45354        1.21101
