27
1sa2dma_20.log	Energy: -608972.5043745
S          0.03932        1.15177        0.10723
O          0.03369        0.15153       -1.01676
O          0.52116        0.45841        1.34733
O          0.77162        2.37363       -0.19798
O         -1.46461        1.56528        0.35139
H         -2.06439        0.73398        0.35501
N          2.32571       -0.86158       -0.08085
C          2.70162       -2.27802        0.04910
C          3.43090        0.06596       -0.41148
H          1.54334       -0.71501       -0.76548
H          3.44439       -2.38621        0.84123
H          1.81191       -2.85613        0.30022
H          3.11838       -2.63525       -0.89427
H          4.18262        0.02598        0.37819
H          3.87387       -0.22410       -1.36558
H          3.01318        1.07253       -0.48077
H          1.82150       -0.49701        0.77117
N         -2.97925       -0.59853        0.21780
C         -2.25724       -1.71671        0.82490
C         -3.19787       -0.77785       -1.21950
H         -3.86983       -0.47212        0.68894
H         -1.27332       -1.78173        0.35342
H         -2.10835       -1.52237        1.88901
H         -2.78009       -2.67595        0.69570
H         -2.22473       -0.75992       -1.71732
H         -3.71214       -1.72183       -1.45184
H         -3.78990        0.05653       -1.60201
