31
1sa2eda_110.log	Energy: -678440.4899931
S         -2.34951        0.24245        0.02507
O         -1.55986        0.09908        1.27248
O         -1.90138        1.38398       -0.78690
O         -2.49873       -1.00615       -0.73992
O         -3.83619        0.59597        0.59245
H         -4.45899        0.46768       -0.13506
H          1.74053        1.99101        1.72934
H          2.40998        0.36854        1.38403
H          3.94277        2.15087        0.55859
H          3.31127        1.17193       -0.76706
H          2.38725        3.87022       -0.09206
H          2.92429        3.30486       -1.53260
H         -0.02454        0.70498        0.80776
H          0.49409        1.71870       -0.40027
C          2.01746        1.28573        0.94050
C          3.03222        1.91134       -0.00856
N          0.79233        0.93838        0.19489
N          2.42601        3.05104       -0.68885
H          0.90053        0.09130       -0.42170
H          2.21985       -3.64918       -0.58571
H          1.99532       -3.50434        1.15936
H         -0.13429       -3.32962       -0.08508
H          0.18633       -1.89892        0.88929
H          0.77769       -2.02430       -1.98482
H         -0.55661       -1.36320       -1.31481
H          3.81317       -2.15693        0.58900
H          3.00246       -1.39365       -0.59997
C          1.95461       -2.94421        0.22039
C          0.52711       -2.45878        0.01216
N          2.89538       -1.82282        0.31428
N          0.43512       -1.55899       -1.14765
