27
1sa2dma_16.log	Energy: -608973.8815551
S         -0.10688       -0.54227       -0.06577
O         -0.72264        0.10272        1.11006
O          0.81724       -1.63714        0.22808
O         -1.18208       -0.92130       -1.05444
O          0.71926        0.58098       -0.84314
H          1.70663        0.50123       -0.56605
N         -3.35340        0.22065       -0.42158
C         -3.82125       -0.39166        0.84226
C         -3.06543        1.66883       -0.30817
H         -2.40603       -0.29482       -0.72593
H         -4.73395        0.10112        1.18530
H         -4.00598       -1.45228        0.66938
H         -3.01776       -0.28177        1.57175
H         -3.97029        2.21123       -0.02448
H         -2.28496        1.78547        0.44481
H         -2.69134        2.02793       -1.26747
H         -4.03536        0.05948       -1.16044
N          3.16629        0.11939        0.01843
C          3.31788        0.69839        1.35120
C          4.32546        0.32159       -0.84201
H          2.95550       -0.87328        0.10973
H          3.41020        1.78528        1.26278
H          2.42563        0.47355        1.94022
H          4.20361        0.31579        1.87925
H          4.46254        1.39267       -1.01988
H          5.25356       -0.07540       -0.40393
H          4.15378       -0.16520       -1.80482
