31
1sa2eda_134.log	Energy: -678435.9494287
S          0.41989        1.61237       -0.03463
O         -0.47991        1.40228       -1.17406
O          1.85545        1.53057       -0.30144
O          0.19515        3.15361        0.43392
O          0.02599        0.77999        1.14431
H         -0.73503        3.36985        0.28759
H          1.01431       -0.43958        1.33357
H          2.12858       -3.13480        0.63140
H          0.50328       -2.46342        0.20011
H          2.26286       -2.41065       -1.68562
H          1.42398       -0.90349       -1.33721
H          4.20210       -1.35238       -1.10939
H          3.34587        0.04244       -0.83973
H          1.65723       -1.63545        2.35145
H          2.66531       -0.82577        1.27098
C          1.56655       -2.24445        0.33707
C          2.14656       -1.62057       -0.93828
N          1.72484       -1.23346        1.42046
N          3.40898       -0.94943       -0.62980
H         -2.76567       -2.46943        0.65849
H         -1.63465       -1.32713        1.40854
H         -3.95240       -0.48319        1.41188
H         -2.82395        0.57707        0.55201
H         -5.04507        0.02124       -0.55337
H         -3.73376       -0.19761       -1.48963
H         -1.96589       -1.92790       -1.43685
H         -1.12274       -0.62486       -0.91475
C         -2.27627       -1.49690        0.53512
C         -3.33619       -0.39609        0.50967
N         -1.42968       -1.56323       -0.65593
N         -4.20697       -0.53904       -0.65884
