31
1sa2eda_05.log	Energy: -678441.0221713
S         -0.13625       -0.93036        0.16259
O         -1.35881       -1.38454        0.81288
O          0.29136       -1.57973       -1.06698
O         -0.27048        0.60834       -0.12704
O          1.02078       -1.00968        1.20683
H         -1.17433        1.01398        0.29817
H          1.97209       -1.04230        0.70640
H         -4.37192        2.13675        0.10627
H         -3.01572        2.42420       -1.01354
H         -4.49087        0.52578       -1.69977
H         -2.81201        0.03449       -1.47021
H         -4.91018       -1.17703       -0.29574
H         -3.39743       -1.18913        0.34317
H         -2.33079        2.40329        1.32966
H         -2.81899        0.84098        1.44695
C         -3.43362        1.72347       -0.28340
C         -3.71389        0.37469       -0.94357
N         -2.45249        1.54346        0.80280
N         -4.16690       -0.58905        0.05706
H          4.02701        0.01053       -1.74613
H          2.25641       -0.01751       -1.59942
H          3.11747        2.21423       -1.01064
H          2.38027        1.43714        0.39384
H          5.25636        1.74495       -0.07247
H          4.38580        2.14673        1.25187
H          3.32691       -1.93081       -0.52241
H          4.05005       -0.88788        0.54412
C          3.18947        0.06808       -1.03695
C          3.23424        1.39403       -0.28859
N          3.24082       -1.03154       -0.05870
N          4.46569        1.47150        0.50140
