31
1sa2eda_129.log	Energy: -678439.9327082
S         -2.61012       -0.15303       -0.10632
O         -2.49671        1.30781       -0.25185
O         -2.99513       -0.89129       -1.30121
O         -1.41470       -0.70139        0.60890
O         -3.79688       -0.42004        0.98698
H         -4.61687       -0.53202        0.48865
H          1.00094        0.50238       -0.89736
H         -0.00560        1.89633       -1.33329
H          2.51507        2.34718       -1.49181
H          1.69317        3.45462       -0.38526
H          3.24186        1.08433        0.38794
H          3.45826        2.65250        0.88501
H         -0.42402        0.55269        0.83391
H          0.87975        1.55889        1.40254
C          0.73629        1.52835       -0.62442
C          1.98149        2.40752       -0.53376
N          0.10847        1.46303        0.72469
N          2.76457        1.96453        0.61814
H         -0.59640        2.19098        0.84386
H          3.58183       -2.85470       -0.13059
H          3.88769       -1.82968        1.27904
H          1.58976       -2.70086        1.31476
H          1.60117       -0.94273        1.18169
H          1.12195       -2.77291       -1.05717
H          0.07869       -1.69522       -0.40004
H          4.64683       -0.82167       -0.82403
H          3.08715       -0.77153       -1.32682
C          3.32871       -1.89036        0.33940
C          1.83386       -1.86727        0.63996
N          3.68687       -0.74602       -0.50439
N          1.06381       -1.86729       -0.60123
