21
1sa2ma_09.log	Energy: -559653.3251309
S          0.01469       -0.70863       -0.07903
O         -1.14963       -1.47518        0.32237
O          0.99058       -1.26948       -0.99509
O         -0.46999        0.65511       -0.70716
O          0.75344       -0.26421        1.23983
H         -1.36129        0.93994       -0.25053
H          1.74756       -0.03875        1.01127
N          3.18433        0.21888        0.45340
H          3.92723        0.27374        1.14281
C          3.17327        1.40434       -0.41657
H          4.12290        1.56114       -0.93962
H          2.37693        1.28496       -1.15380
H          2.94958        2.28811        0.18500
H          3.33451       -0.62027       -0.10173
N         -2.74705        1.15770        0.46527
H         -2.62635        0.70362        1.36716
C         -3.78308        0.46020       -0.31260
H         -4.76090        0.45722        0.18120
H         -3.88056        0.94134       -1.28815
H         -3.45533       -0.56923       -0.46686
H         -3.00650        2.12302        0.64250
