31
1sa2eda_147.log	Energy: -678434.6657577
S          0.71161       -1.69979       -0.09489
O          0.07116       -0.95911       -1.18216
O          2.06587       -1.28429        0.27816
O         -0.19111       -1.83764        1.09037
O          0.85958       -3.20974       -0.68540
H         -1.29961       -0.78252        1.22592
H          1.57477       -3.64042       -0.19904
H          2.68975        1.25420       -0.95409
H          2.73975        2.98277       -1.28481
H          3.06180        2.65047        1.05407
H          1.51248        3.46318        0.80380
H          1.71759        0.55982        1.22217
H          1.38424        1.63492        2.40634
H          0.48292        1.13493       -1.41697
H          0.21112        2.76281       -1.26201
C          2.13680        2.19059       -0.82218
C          2.03738        2.50591        0.67356
N          0.88289        2.05941       -1.54984
N          1.30089        1.47313        1.40764
H         -2.48336        1.97812        1.14627
H         -0.84011        1.45046        0.66219
H         -2.40118        1.84573       -1.33478
H         -1.79113        0.18832       -1.23342
H         -4.50914        1.06587       -0.60578
H         -4.00374       -0.25732       -1.42467
H         -2.04899        0.10859        2.44188
H         -2.98694       -0.45259        1.16986
C         -1.90586        1.19165        0.64933
C         -2.44577        0.91852       -0.75107
N         -2.07286       -0.06178        1.43976
N         -3.79311        0.34860       -0.64100
