31
1sa2eda_145.log	Energy: -678437.0646762
S          2.12169        0.06826       -0.05694
O          3.51584        0.42299       -0.25860
O          1.19117        0.26687       -1.17397
O          2.09506       -1.56148        0.14690
O          1.54991        0.61077        1.21776
H          2.93550       -1.81392        0.55085
H          0.13543        1.15673        1.19378
H         -1.73729        3.44177        0.67813
H         -0.03193        3.25703        0.18141
H         -1.71763        2.89320       -1.71995
H         -0.60925        1.54344       -1.43423
H         -3.45294        1.53779       -1.02868
H         -2.37768        0.26060       -1.17110
H         -0.89485        1.97890        2.25059
H         -1.59289        0.98528        1.09813
C         -0.98803        2.74317        0.29605
C         -1.45282        2.09794       -1.01534
N         -0.82375        1.64987        1.29096
N         -2.55263        1.17715       -0.74082
H         -0.45517       -1.25149        1.04331
H         -1.00296       -2.82620        1.60076
H         -0.26875       -3.09738       -0.63081
H         -2.04401       -3.21090       -0.65256
H         -0.40214       -0.95201       -1.52612
H         -1.46669       -1.81695       -2.40835
H         -2.66419       -1.26026        2.23984
H         -2.87893       -0.75034        0.68027
C         -1.25140       -2.00347        0.92221
C         -1.20018       -2.52897       -0.50609
N         -2.58969       -1.52672        1.26548
N         -1.30278       -1.43354       -1.48304
