21
1sa2ma_10.log	Energy: -559655.1040224
S         -1.48054       -0.23350       -0.09688
O         -0.62106        0.07396       -1.24982
O         -2.91127       -0.34248       -0.31933
O         -0.89463       -1.31678        0.74061
O         -1.29252        1.13843        0.83318
H         -2.07786        1.21610        1.38969
N          1.63242       -1.12363       -0.16215
H          1.36659       -1.02137       -1.14313
H          1.81125       -0.12888        0.19722
C          2.75069       -2.05230        0.06460
H          2.92996       -2.13412        1.13680
H          2.50380       -3.03706       -0.33278
H          3.65026       -1.67579       -0.42395
H          0.73125       -1.40571        0.30461
N          1.70584        1.51702        0.66707
H          0.76565        1.54415        1.06479
C          1.72631        2.33701       -0.55465
H          1.52153        3.39699       -0.36653
H          2.70520        2.25285       -1.03591
H          0.96331        1.95183       -1.23485
H          2.34382        1.89003        1.36284
