15
1sa2a_01.log	Energy: -510338.3141987
S          0.00000        0.49398        0.00001
O         -1.04069        1.20958       -0.71180
O          1.04070        1.20959        0.71178
O         -0.67453       -0.48405        1.04027
O          0.67451       -0.48405       -1.04027
H         -1.60709       -0.74364        0.70262
H          1.60708       -0.74364       -0.70262
N         -3.07769       -0.90878        0.01462
H         -3.86949       -0.82598        0.64336
H         -3.21170       -1.73287       -0.56171
H         -3.06110       -0.09216       -0.59358
N          3.07768       -0.90879       -0.01462
H          3.21169       -1.73288        0.56171
H          3.06110       -0.09218        0.59358
H          3.86948       -0.82600       -0.64336
