15
1sa2a_04.log	Energy: -510337.1920894
S          0.95043       -0.08214        0.09373
O          2.38423       -0.07969        0.31424
O          0.05889        0.01105        1.25606
O          0.62374        1.34147       -0.69922
O          0.47834       -1.13537       -0.85802
H          1.38332        1.53918       -1.26192
H         -1.02439       -1.42959       -0.50300
N         -2.01401       -1.42795       -0.08321
H         -1.92252       -1.73826        0.88182
H         -2.65594       -2.02431       -0.59605
H         -2.31935       -0.40248       -0.07717
N         -2.32655        1.32067        0.03545
H         -1.60663        1.63196       -0.61610
H         -1.91007        1.45412        0.95503
H         -3.12891        1.93494       -0.05238
