27
1sa2dma_14.log	Energy: -608974.0612425
S          1.94984       -0.36074       -0.18488
O          2.92917       -1.06468       -0.99702
O          2.00237        1.10952       -0.21630
O          0.53982       -0.83503       -0.32244
O          2.27195       -0.78868        1.37358
H          3.22881       -0.90139        1.44108
N         -1.00052        1.29857        0.06054
C         -0.66710        1.88590        1.37301
C         -0.90490        2.24515       -1.06620
H         -0.33597        0.49208       -0.11751
H         -1.37064        2.68726        1.60874
H         -0.72659        1.10170        2.12868
H          0.35566        2.26230        1.33059
H         -1.58839        3.08176       -0.90601
H          0.12684        2.59262       -1.13526
H         -1.16885        1.72099       -1.98560
H         -1.93796        0.82202        0.09110
N         -3.06350       -0.59239        0.07170
C         -2.54499       -1.44843        1.14442
C         -2.83672       -1.18002       -1.25257
H         -4.05814       -0.44372        0.20873
H         -1.46190       -1.55283        1.02199
H         -2.74817       -0.98554        2.11396
H         -2.98856       -2.45417        1.13402
H         -1.75904       -1.28530       -1.41387
H         -3.29430       -2.17380       -1.36041
H         -3.24629       -0.52012       -2.02232
