27
1sa2dma_03.log	Energy: -608977.5781143
S         -1.73518       -0.14410       -0.11247
O         -1.28845       -0.11157        1.29119
O         -1.44182        1.15032       -0.79490
O         -1.31812       -1.32420       -0.86830
O         -3.35686       -0.26031       -0.09671
H         -3.70420        0.50297        0.38334
N          1.15160        1.43803       -0.04906
C          1.22558        1.92127        1.34322
C          2.03824        2.13320       -0.99551
H          1.37008        0.37455       -0.06498
H          0.99088        2.98724        1.37705
H          0.49112        1.36141        1.92386
H          2.23203        1.75400        1.73354
H          1.79720        3.19774       -1.02120
H          3.07804        2.00116       -0.68833
H          1.89401        1.70595       -1.98863
H          0.15372        1.48875       -0.37714
N          1.56494       -1.27876       -0.09203
C          1.62478       -1.76558        1.28722
C          2.65481       -1.77564       -0.92578
H          0.66419       -1.55680       -0.49133
H          2.50978       -1.35227        1.78459
H          0.72604       -1.43334        1.81173
H          1.68370       -2.86194        1.34094
H          3.60957       -1.38469       -0.55666
H          2.71722       -2.87343       -0.93026
H          2.51516       -1.43411       -1.95478
