31
1sa2eda_149.log	Energy: -678435.6202373
S          0.05957       -1.40631       -0.24057
O          0.66916       -0.76357       -1.41046
O         -1.06254       -2.31592       -0.50364
O          1.18381       -2.28105        0.46479
O         -0.34405       -0.37128        0.79165
H          2.03622       -1.73243        0.46492
H         -1.81115       -0.42395        0.89163
H         -3.11478        1.94160        1.31279
H         -3.73642        2.54837       -0.21954
H         -4.52721        0.33505       -0.20677
H         -3.04541        0.22434       -1.19183
H         -3.37676       -0.61008        1.61767
H         -2.87619       -1.52200        0.30559
H         -1.44565        3.13369       -0.12462
H         -0.95268        1.58919        0.06460
C         -3.01279        1.85027        0.21386
C         -3.44002        0.44289       -0.19746
N         -1.69957        2.17147       -0.31138
N         -2.88380       -0.58664        0.72816
H          3.70677        2.04144       -0.56816
H          2.95170        2.87558        0.79722
H          3.62947        0.80174        1.70145
H          1.89726        0.60890        1.40670
H          2.77332       -0.38546       -0.81853
H          4.15028       -0.63138        0.03644
H          1.60160        2.89973       -1.29219
H          1.25901        1.31770       -1.04026
C          2.83418        2.02988        0.10873
C          2.86927        0.73432        0.91809
N          1.55339        2.17892       -0.58130
N          3.15180       -0.47813        0.12366
