27
1sa2dma_06.log	Energy: -608975.2699167
S          0.03255       -0.72989       -0.02742
O         -0.89873       -1.67608        0.58146
O          0.54887        0.29205        0.94436
O          1.16456       -1.33414       -0.77919
O         -0.77246        0.09114       -1.13549
H         -1.72659        0.22657       -0.78354
N          2.99980        0.38095        0.01856
C          4.16350        0.00745        0.83823
C          3.21941        1.47435       -0.94570
H          2.58689       -0.44936       -0.47725
H          4.49027        0.86877        1.42361
H          3.86984       -0.80085        1.50814
H          4.97605       -0.32743        0.19095
H          3.51732        2.37852       -0.41199
H          3.99775        1.18746       -1.65476
H          2.28271        1.64976       -1.47591
H          2.14712        0.58960        0.61020
N         -3.13244        0.23759        0.05132
C         -4.38756        0.34970       -0.68163
C         -3.00276        1.20288        1.14156
H         -3.02149       -0.70250        0.42738
H         -4.43294        1.32551       -1.17512
H         -4.43055       -0.42407       -1.45153
H         -5.26996        0.25335       -0.03118
H         -3.00030        2.21472        0.72429
H         -3.82213        1.12965        1.87181
H         -2.04985        1.03880        1.65042
