31
1sa2eda_79.log	Energy: -678443.0736253
S          1.64758       -1.07540       -0.05404
O          2.06417        0.07092        0.77452
O          1.03668       -2.16519        0.72363
O          0.87896       -0.66098       -1.24420
O          3.00314       -1.70665       -0.70759
H          3.45117       -2.20676       -0.01282
H         -0.82725        3.30307       -0.90871
H         -1.51192        2.98299        0.70748
H          0.65885        4.10336        0.89632
H          0.78887        2.46573        1.54934
H          2.44226        3.47567       -0.31760
H          2.13723        1.86594       -0.16257
H         -1.71073        1.08709       -0.81667
H         -0.02890        0.91687       -0.86814
C         -0.70097        2.73500        0.01540
C          0.66425        3.04316        0.62224
N         -0.82490        1.29848       -0.32141
N          1.71425        2.77444       -0.34780
H         -0.91491        0.68457        0.51955
H         -4.27380       -1.42217        0.39496
H         -3.78866       -1.57895       -1.29242
H         -2.22678       -2.72110        0.20135
H         -1.42558       -1.47103       -0.74035
H         -2.21878       -1.12934        2.06519
H         -0.71223       -1.38318        1.47067
H         -4.32851        0.62363       -1.10627
H         -3.65824        0.81270        0.36174
C         -3.51963       -1.10796       -0.34271
C         -2.14827       -1.63372        0.06588
N         -3.53339        0.35427       -0.53674
N         -1.62014       -0.95953        1.26135
