21
1sa2ma_20.log	Energy: -559645.0507936
S          1.40162       -0.20871        0.00907
O          1.61866       -1.64585       -0.02661
O          0.75434        0.33256        1.22781
O          2.88644        0.47417        0.06920
O          0.76200        0.34840       -1.21690
H          3.48909       -0.11137       -0.40774
H         -0.41542        1.51538       -0.77937
N         -3.11387       -1.31000        0.03751
H         -3.60532       -1.62912        0.86623
C         -1.77635       -1.91562       -0.02570
H         -1.77787       -3.01261       -0.06211
H         -1.25042       -1.54683       -0.90944
H         -1.19522       -1.60579        0.84577
H         -3.67209       -1.60524       -0.75717
N         -0.89619        2.03342       -0.00057
H         -0.45011        1.53168        0.80292
C         -2.37270        1.91707       -0.02845
H         -2.78836        2.42169        0.84433
H         -2.75061        2.38286       -0.93910
H         -2.64442        0.85385       -0.00867
H         -0.57209        2.99795       -0.00242
