31
1sa2eda_68.log	Energy: -678444.5068632
S          0.28221       -1.64136        0.14652
O          0.11924       -0.71231        1.29276
O         -0.54464       -2.83748        0.19591
O         -0.15830       -0.79275       -1.15491
O          1.73537       -1.87993       -0.12000
H         -1.14802       -0.60399       -1.07106
H          2.45840       -0.65028        0.38873
H         -3.47161        0.74951        1.50558
H         -3.57438        2.38191        0.84264
H         -4.49231        0.84758       -0.73476
H         -2.99798        1.53536       -1.40411
H         -3.02974       -1.09308       -0.07442
H         -3.18863       -0.89734       -1.68338
H         -1.46645        2.17774        1.76467
H         -1.12247        0.76860        1.04098
C         -3.05315        1.42430        0.73849
C         -3.39748        0.86559       -0.63565
N         -1.62084        1.65319        0.90880
N         -2.81046       -0.46519       -0.84558
H          3.90779        1.92775       -0.14467
H          3.72738        0.50438       -1.20484
H          2.17809        2.37758       -1.87916
H          1.29354        0.92243       -1.39181
H          1.41029        3.42232        0.05763
H          0.21779        2.27441        0.03069
H          3.63793        0.15469        1.34515
H          2.09846        0.79791        1.19632
C          3.22478        1.13873       -0.47185
C          1.92728        1.73559       -1.02567
N          2.86410        0.30807        0.70467
N          1.22785        2.42662        0.05063
