31
1sa2eda_142.log	Energy: -678436.0061995
S         -0.19135       -0.81859        0.05116
O         -0.56229       -1.39639       -1.23814
O         -0.22364        0.66618        0.09449
O         -1.00798       -1.38656        1.18220
O          1.30479       -1.24990        0.35635
H          1.82060       -0.44361        0.73759
H         -2.75680       -0.78721       -0.98483
H         -4.50705       -0.90275       -0.72655
H         -3.56579        1.17603       -2.03795
H         -4.79579        1.48639       -0.80186
H         -1.89883        1.75946       -0.30802
H         -3.04494        2.96609       -0.31678
H         -2.41085       -0.86054        1.15997
H         -3.18785        0.65239        1.23270
C         -3.61574       -0.31629       -0.50027
C         -3.76670        1.14409       -0.95974
N         -3.35414       -0.33993        0.97272
N         -2.88639        1.98046       -0.15285
H         -4.11519       -0.73197        1.51840
H          4.92350       -0.09655        0.62026
H          5.35995        0.94238       -0.73972
H          4.02930        2.33079        0.59992
H          2.92291        1.78142       -0.67499
H          2.99805        0.82431        2.09395
H          1.73517        1.47646        1.25962
H          4.61271       -1.17762       -1.56314
H          3.12111       -0.96512       -0.91860
C          4.51996        0.41621       -0.27253
C          3.50557        1.45653        0.19150
N          3.94274       -0.47803       -1.26647
N          2.56577        0.89425        1.17781
