31
1sa2eda_91.log	Energy: -678440.5861966
S          0.09495        0.79690       -0.11833
O          0.46769        1.55822        1.07326
O          0.05172       -0.67765        0.11128
O         -1.18211        1.24864       -0.76119
O          1.19260        1.06092       -1.23312
H          2.11817        1.05657       -0.78530
H         -3.42897       -1.68191        1.27658
H         -2.58892       -0.12546        1.46031
H         -5.07320        0.19729        1.50723
H         -4.33353        1.00586        0.12250
H         -5.88237       -1.47419        0.02702
H         -6.00481       -0.14508       -0.91741
H         -1.68005       -1.43291       -0.35234
H         -3.20357       -1.31655       -1.15142
C         -3.25231       -0.70557        0.81608
C         -4.56199        0.02538        0.55145
N         -2.55829       -0.90700       -0.47433
N         -5.34971       -0.73577       -0.42001
H         -2.15617        0.04009       -0.79590
H          4.25693       -0.13784        1.71109
H          2.48838       -0.04759        1.55602
H          3.26291       -2.27996        0.91061
H          2.57263       -1.43568       -0.47761
H          5.43205       -1.86868        0.01379
H          4.56222       -2.22412       -1.32433
H          3.59249        1.86729        0.54636
H          4.32476        0.85347       -0.53862
C          3.42136       -0.14038        0.99424
C          3.42187       -1.44623        0.21152
N          3.50689        0.98460        0.05289
N          4.65956       -1.55915       -0.56666
