31
1sa2eda_84.log	Energy: -678442.3101157
S          2.21209       -0.21539       -0.04285
O          3.55427       -0.73049       -0.26295
O          1.13739       -1.00476       -0.72693
O          1.80920        0.10364        1.33182
O          2.18045        1.24740       -0.79948
H          2.88931        1.23707       -1.45504
H         -1.51545       -3.12979        0.75988
H         -2.55713       -2.07675        1.74443
H         -3.48710       -2.11024       -0.48668
H         -2.80381       -0.51817       -0.20793
H         -0.86297       -1.27103       -1.55609
H         -1.68830       -2.63919       -1.90430
H         -0.18102       -1.57946        2.06194
H          0.01659       -1.23089        0.45881
C         -1.86052       -2.10137        0.90064
C         -2.54206       -1.57088       -0.36709
N         -0.69061       -1.25805        1.24098
N         -1.79482       -1.67569       -1.60793
H         -0.98528       -0.24512        1.41804
H         -1.04352        3.31212        0.78465
H          0.29450        2.14563        0.89028
H         -0.43640        2.47225       -1.44303
H         -0.61601        0.81435       -0.91985
H         -2.80021        2.72669       -1.28070
H         -2.64073        1.21430       -1.88130
H         -1.44586        1.72975        2.53397
H         -2.52018        1.46010        1.31805
C         -0.76867        2.25379        0.66289
C         -1.01651        1.82109       -0.77701
N         -1.53799        1.39348        1.58037
N         -2.45283        1.79634       -1.07137
