27
1sa2dma_21.log	Energy: -608970.5591516
S          1.82655       -0.31781       -0.02043
O          3.25750       -0.56955       -0.06602
O          1.25378       -0.07507        1.31542
O          1.65062        1.21488       -0.77068
O          0.95978       -1.12108       -0.88565
H          2.40422        1.75077       -0.49323
H         -1.40900        0.39587        0.02984
N         -1.04461        1.40968       -0.01309
C         -1.13203        1.97023        1.35084
C         -1.83307        2.13122       -1.02753
H         -0.04846        1.39314       -0.30195
H         -2.16223        1.88989        1.70493
H         -0.45854        1.39034        1.98266
H         -0.82759        3.01866        1.33982
H         -2.89153        2.08654       -0.76219
H         -1.51195        3.17320       -1.07839
H         -1.67655        1.65377       -1.99527
N         -2.25399       -1.06724        0.14225
C         -1.60319       -1.86970        1.18820
C         -2.18628       -1.71619       -1.17391
H         -3.23123       -0.94143        0.39276
H         -0.54153       -1.95565        0.95348
H         -1.69760       -1.36127        2.15092
H         -2.04273       -2.87384        1.26829
H         -1.13658       -1.79165       -1.46528
H         -2.63077       -2.72122       -1.16383
H         -2.71843       -1.10610       -1.91006
