31
1sa2eda_80.log	Energy: -678440.3336052
S          0.10672        1.39034       -0.25716
O          1.34903        2.13453       -0.22038
O         -1.15116        2.08896       -0.43600
O          0.16785        0.28428       -1.37591
O          0.05389        0.53636        1.07316
H          0.96353       -0.39384       -1.22648
H         -0.90735        0.11728        1.23283
H         -4.33219       -0.20076        1.08587
H         -3.23404        1.10991        0.58082
H         -3.96916       -0.19857       -1.36770
H         -2.22680       -0.32856       -1.12623
H         -4.19441       -2.40691       -0.50667
H         -2.82688       -2.51780       -1.39297
H         -2.47761       -0.27676        2.52521
H         -2.25047       -1.49868        1.44511
C         -3.34003        0.02673        0.67120
C         -3.19540       -0.60999       -0.70542
N         -2.27227       -0.48356        1.55216
N         -3.24003       -2.07076       -0.58344
H          4.03164       -2.00840       -0.69943
H          3.73035       -0.50399       -1.60082
H          4.50162       -0.17595        0.79897
H          3.00628        0.65844        0.37647
H          3.31891       -1.21647        2.41025
H          1.91895       -0.51899        1.89592
H          1.93084       -2.17185       -1.79207
H          1.68003       -2.01543       -0.17352
C          3.38477       -1.12347       -0.76777
C          3.44896       -0.32850        0.53855
N          1.98795       -1.52157       -1.01372
N          2.73615       -1.04407        1.60252
