31
1sa2eda_56.log	Energy: -678443.2884532
S         -0.10916        1.33911       -0.40705
O          0.00065        0.14823       -1.28253
O          0.83782        2.40243       -0.70219
O         -1.53383        1.78204       -0.26726
O          0.19155        0.79894        1.09109
H         -2.23888        0.84693        0.67449
H          1.20205        0.63980        1.17023
H         -4.04369       -1.53034        1.13067
H         -4.40566       -0.09326        0.13343
H         -3.51546       -2.09461       -1.20042
H         -2.57647       -0.60821       -1.39806
H         -1.62383       -3.03411       -0.33868
H         -0.81920       -1.60219       -0.60034
H         -3.00602        0.37388        2.15073
H         -1.82550       -0.58407        1.44713
C         -3.61559       -0.76255        0.48035
C         -2.84852       -1.39474       -0.68726
N         -2.63845        0.02520        1.26990
N         -1.63967       -2.03634       -0.17873
H          4.36625       -1.02193        0.92418
H          3.04939       -1.39851        2.05923
H          2.95644       -2.74253       -0.04561
H          1.49523       -1.78414        0.22710
H          3.03586       -1.70986       -2.03901
H          1.92262       -0.57354       -1.60530
H          3.31165        0.99378        1.77905
H          3.03758        0.85008        0.17274
C          3.28163       -0.95314        1.08539
C          2.56315       -1.71995       -0.02485
N          2.82166        0.44090        1.08298
N          2.76655       -1.06172       -1.31180
