27
1sa2dma_10.log	Energy: -608972.9896546
S          0.00011       -0.56889       -0.00040
O         -0.86575       -1.31111        0.90787
O          0.86708       -1.31224       -0.90669
O         -0.89579        0.39383       -0.84923
O          0.89444        0.39759        0.84570
H         -1.89203        0.42137       -0.42835
H          1.89165        0.42359        0.42634
N         -3.20751        0.31559        0.19732
C         -4.03656       -0.59119       -0.59993
C         -3.84592        1.60047        0.47914
H         -2.94289       -0.15232        1.06260
H         -4.20171       -0.14930       -1.58635
H         -3.50581       -1.53676       -0.72521
H         -5.01034       -0.78099       -0.13015
H         -4.01418        2.12861       -0.46340
H         -4.81036        1.48221        0.99038
H         -3.18324        2.20653        1.10025
N          3.20750        0.31558       -0.19684
C          4.03436       -0.59125        0.60267
C          3.84794        1.59929       -0.47941
H          2.94357       -0.15317       -1.06188
H          4.19864       -0.14842        1.58881
H          3.50234       -1.53607        0.72823
H          5.00855       -0.78268        0.13442
H          4.01581        2.12828        0.46272
H          4.81281        1.47912       -0.98939
H          3.18684        2.20554       -1.10202
