31
1sa2eda_81.log	Energy: -678443.0524280
S          0.06615       -0.87854       -0.05237
O         -0.17339        0.24792       -0.98592
O          1.27340       -1.68322       -0.43127
O          0.16653       -0.43716        1.35283
O         -1.13917       -1.88040       -0.20242
H         -2.01214       -1.36623       -0.42842
H          4.69777        0.79692        0.65472
H          4.57072       -0.59828       -0.45323
H          3.87510        1.60249       -1.52815
H          2.59975        0.37744       -1.54111
H          2.50524        2.87922       -0.21727
H          1.31891        1.73152       -0.38449
H          3.51346       -0.96777        1.77415
H          2.43080        0.24884        1.38805
C          4.01004        0.17840        0.07173
C          3.18432        1.03785       -0.89317
N          3.06277       -0.47408        1.00884
N          2.28947        1.89627       -0.12592
H          2.39361       -1.13121        0.46588
H         -4.88031        0.64504       -0.02442
H         -4.26697       -0.63269        1.05433
H         -3.53972        1.68125        1.68569
H         -2.18685        0.57358        1.42185
H         -2.33882        2.95043        0.26701
H         -1.61874        1.67772       -0.47705
H         -3.98922       -1.20576       -1.28199
H         -3.04493        0.11314       -1.50360
C         -3.97844        0.11294        0.30641
C         -3.00138        1.11322        0.91975
N         -3.33323       -0.58462       -0.81815
N         -2.50361        2.02663       -0.11166
