31
1sa2eda_51.log	Energy: -678441.8335223
S          2.19606        0.52365       -0.04222
O          1.46909        0.46162       -1.34490
O          3.29243        1.47956       -0.01901
O          1.25068        0.54867        1.08704
O          2.89210       -0.95862        0.11676
H          3.75746       -0.91316       -0.30964
H         -0.93849        2.64961       -0.96655
H         -2.04994        1.78351       -2.03674
H         -3.29401        3.20589       -0.41093
H         -3.66730        1.49344       -0.18191
H         -1.80445        3.00616        1.51485
H         -3.17786        2.22774        1.96479
H         -0.15355        0.48131       -1.02253
H         -0.90182        0.65035        0.43419
C         -1.71694        1.88214       -1.00144
C         -2.87599        2.24432       -0.07868
N         -1.09830        0.61294       -0.57563
N         -2.41343        2.22319        1.30175
H         -1.69871       -0.23115       -0.73442
H         -1.91483       -3.87328       -0.03488
H         -1.36549       -3.23393       -1.59209
H          0.46760       -3.38203        0.12222
H          0.25623       -1.77827       -0.54015
H         -0.45390       -2.62817        2.14233
H          0.24989       -1.23680        1.61991
H         -3.39725       -2.15458       -0.90407
H         -2.68775       -1.68120        0.50317
C         -1.53942       -2.97246       -0.54355
C         -0.22273       -2.52781        0.09606
N         -2.51770       -1.87369       -0.48326
N         -0.46583       -1.92969        1.40779
