31
1sa2eda_48.log	Energy: -678443.0147210
S          1.98680       -0.96641       -0.12999
O          0.55593       -1.14711        0.24889
O          2.51296       -1.97140       -1.04211
O          2.26448        0.43526       -0.48679
O          2.73941       -1.22534        1.30595
H          3.61879       -1.56939        1.10261
H          0.14394        1.23050       -1.34305
H         -1.45632        2.00841       -1.24314
H          0.60716        3.56302       -1.46900
H         -0.53060        3.97061       -0.17448
H          1.90689        2.38430        0.27418
H          1.62976        3.93563        0.79693
H         -0.23911        0.25622        0.54897
H         -0.23766        1.75726        1.28221
C         -0.49505        1.87779       -0.74115
C          0.19990        3.22367       -0.50694
N         -0.71707        1.19611        0.56410
N          1.19115        3.05796        0.54896
H         -1.73598        1.03508        0.76116
H         -4.66139       -1.00102       -0.29388
H         -3.88576        0.29285       -1.22143
H         -2.86410       -1.96515       -1.63060
H         -1.69983       -0.79003       -1.04516
H         -2.65605       -3.09376        0.38533
H         -1.21316       -2.29853        0.46393
H         -4.19386        0.86081        1.14334
H         -3.20732       -0.39838        1.53412
C         -3.73270       -0.42232       -0.40570
C         -2.58048       -1.37010       -0.75195
N         -3.40221        0.31113        0.82595
N         -2.22135       -2.17966        0.40882
