31
1sa2eda_33.log	Energy: -678442.4044241
S         -1.30074       -1.50740       -0.02733
O         -2.67683       -1.31956       -0.48947
O         -0.23910       -1.25580       -1.00424
O         -1.03382       -0.81500        1.27118
O         -1.14372       -3.09922        0.30696
H         -1.97127       -3.38937        0.71222
H          0.14926        2.82630       -0.98041
H         -0.11875        1.08459       -1.29294
H         -2.17441        2.42800       -1.80372
H         -2.43611        1.23897       -0.53113
H         -2.24541        4.13150       -0.18227
H         -3.25545        3.06076        0.53099
H          0.97935        1.57066        0.89302
H         -0.50465        2.34885        1.31477
C         -0.41342        1.93734       -0.67850
C         -1.91824        2.17386       -0.76784
N         -0.06550        1.63211        0.72987
N         -2.30587        3.19735        0.20715
H         -0.46962        0.69251        1.00303
H          3.43263       -0.94653        1.34941
H          1.67372       -0.84909        1.13427
H          2.73855       -1.59337       -0.93613
H          1.95750       -0.04424       -1.16644
H          4.84798       -0.43978       -0.85553
H          4.05401        0.27519       -2.08738
H          2.84350        1.14496        2.19458
H          3.38975        1.47172        0.68310
C          2.62655       -0.39785        0.84025
C          2.79840       -0.53180       -0.66676
N          2.63346        1.03140        1.20756
N          4.03924        0.12972       -1.08465
