27
1sa2dma_12.log	Energy: -608973.8505907
S          0.00015        0.78523        0.00016
O          1.07582        1.51055        0.65340
O         -1.07651        1.51127       -0.65065
O          0.61645       -0.18573       -1.07301
O         -0.61481       -0.19024        1.07006
H          1.58070       -0.50997       -0.77157
H         -1.57982       -0.51278        0.76896
N          2.97373       -0.90391       -0.31788
C          2.91349       -1.22704        1.11357
C          3.86248        0.22921       -0.60415
H          3.28946       -1.72018       -0.83428
H          2.50299       -0.36449        1.64300
H          2.24090       -2.07380        1.26599
H          3.90270       -1.46715        1.52502
H          3.44154        1.12067       -0.13389
H          4.87919        0.06252       -0.22442
H          3.90312        0.39358       -1.68311
N         -2.97361       -0.90457        0.31656
C         -2.91621       -1.22372       -1.11588
C         -3.86101        0.22838        0.60769
H         -3.28895       -1.72204        0.83129
H         -2.50525       -0.36029       -1.64352
H         -2.24525       -2.07113       -1.27184
H         -3.90647       -1.46112       -1.52640
H         -3.44083        1.12065        0.13826
H         -4.87881        0.06302        0.23035
H         -3.89860        0.39044        1.68711
