31
1sa2eda_126.log	Energy: -678439.9678237
S          0.12481       -1.04084       -0.26372
O         -0.77746       -2.11875        0.17830
O          1.37612       -1.45597       -0.90177
O         -0.64327       -0.03956       -1.08656
O          0.52675       -0.23118        1.05806
H         -2.10542       -0.35053       -0.87360
H          1.54914       -0.18903        1.13324
H          4.46305        0.45560       -1.13401
H          4.55974        2.15923       -0.72424
H          4.99267        0.83000        1.23094
H          3.50517        1.76164        1.46245
H          3.32200       -1.00408        0.50341
H          3.43031       -0.66874        2.10621
H          2.16713        0.58360       -1.36949
H          2.06066        2.07891       -0.70122
C          3.94589        1.25884       -0.59404
C          3.94757        0.92809        0.90299
N          2.66152        1.46089       -1.23520
N          3.16794       -0.28162        1.20537
H         -4.05617       -0.48752        1.39025
H         -2.29179       -0.23993        1.44359
H         -3.51203        1.95088        1.61954
H         -2.51262        1.85378        0.16576
H         -5.42955        1.66604        0.26240
H         -4.48153        2.51655       -0.76290
H         -2.93570       -1.69438       -0.36775
H         -3.84257       -0.41685       -1.04226
C         -3.20170       -0.03875        0.87533
C         -3.40935        1.45265        0.64749
N         -3.05254       -0.68356       -0.45137
N         -4.55278        1.64813       -0.24704
