27
1sa2dma_07.log	Energy: -608975.8568432
S         -1.74142       -0.10780       -0.04494
O         -1.19338        0.96368       -0.93208
O         -2.06106       -1.33964       -0.76204
O         -0.93546       -0.24607        1.17467
O         -3.16516        0.47721        0.50236
H         -3.83274        0.27270       -0.16529
N          1.31202        1.34822       -0.09509
C          2.07219        2.10826       -1.10058
C          1.32128        1.93796        1.25763
H          0.30863        1.24977       -0.42076
H          3.12113        2.17456       -0.80289
H          1.99277        1.59715       -2.06085
H          1.65337        3.11179       -1.19460
H          2.34522        1.97062        1.63745
H          0.91085        2.94861        1.21405
H          0.68963        1.31557        1.89177
H          1.68961        0.35110       -0.04869
N          2.22023       -1.29812       -0.05506
C          1.48435       -1.95057       -1.14622
C          1.89199       -1.87570        1.25485
H          3.21627       -1.40828       -0.22294
H          0.41004       -1.81554       -0.99623
H          1.75861       -1.49151       -2.10009
H          1.68816       -3.02911       -1.20118
H          0.83679       -1.68303        1.46453
H          2.07397       -2.95921        1.29060
H          2.49618       -1.39214        2.02779
