31
1sa2eda_125.log	Energy: -678440.7392838
S         -2.10349       -0.24147        0.10072
O         -2.53229        1.11047       -0.28002
O         -1.14949       -0.79965       -0.91521
O         -1.63645       -0.42142        1.46875
O         -3.42078       -1.19519        0.00108
H         -3.89031       -0.96067       -0.81007
H          1.11464        3.08352       -1.19197
H         -0.59864        2.57253       -1.12051
H          0.07415        3.23145        1.09055
H         -0.19063        1.49815        1.08193
H          2.41228        2.82533        1.18227
H          1.82218        1.62078        2.11500
H          0.84147        1.09743       -2.41860
H          1.70988        0.62080       -1.07201
C          0.41850        2.33358       -0.80342
C          0.47879        2.28099        0.71571
N          0.78256        1.02189       -1.40504
N          1.83596        1.99053        1.17154
H          0.03541        0.29552       -1.20882
H          3.81169       -1.90495        0.57056
H          3.34174       -0.29041        1.15413
H          1.69808       -2.09076        1.78955
H          0.97972       -0.78274        0.87257
H          1.29668       -3.49615        0.01245
H          0.23278       -2.33090       -0.46934
H          3.99401       -0.27094       -1.18577
H          2.76684       -1.32406       -1.50850
C          3.07437       -1.09506        0.46397
C          1.67831       -1.62150        0.79751
N          3.06195       -0.55633       -0.90390
N          1.20753       -2.52354       -0.25321
