31
1sa2eda_44.log	Energy: -678443.4637981
S         -2.07356       -0.59027        0.01928
O         -2.33365        0.43721        1.03706
O         -1.26551       -0.08835       -1.11095
O         -1.55974       -1.87485        0.54188
O         -3.52972       -1.00644       -0.57759
H         -4.07360       -0.20788       -0.58282
H          1.49028       -2.35775       -1.11624
H          1.02875       -0.67093       -1.36160
H          3.49811       -0.99769       -1.74485
H          3.21168        0.06362       -0.36291
H          3.99038       -2.75495       -0.19370
H          4.70260       -1.45713        0.49863
H          0.12687       -1.68441        0.67603
H          1.73647       -1.76314        1.25796
C          1.63061       -1.33910       -0.74306
C          3.10654       -0.96699       -0.71939
N          1.09105       -1.27511        0.63304
N          3.81012       -1.84482        0.21751
H          0.98172       -0.25462        0.95350
H          0.96137        3.43650        1.28522
H          2.36968        2.36089        1.13852
H          1.78684        3.36026       -0.99906
H          1.59401        1.60700       -1.07265
H         -0.26470        3.18425       -1.95088
H         -0.73580        1.88957       -1.06998
H          0.60876        1.38829        2.46424
H         -0.42817        1.41686        1.22307
C          1.31049        2.47921        0.87706
C          1.16875        2.52997       -0.64030
N          0.56880        1.34557        1.44927
N         -0.21250        2.76387       -1.03124
