31
1sa2eda_46.log	Energy: -678443.0385601
S         -0.93227        1.54060        0.05724
O          0.42955        1.40046       -0.53890
O         -2.00146        1.17418       -0.87430
O         -0.99558        0.94871        1.39742
O         -1.11961        3.13769        0.33477
H         -1.44121        3.53357       -0.48571
H          2.85347       -2.13026       -0.25771
H          1.70961       -1.26102       -1.30511
H          4.06406       -0.64109       -1.87873
H          3.14296        0.74179       -1.27502
H          5.21519       -0.71078        0.18881
H          4.98203        0.90316        0.04994
H          1.09611       -1.20008        1.09410
H          2.54491       -0.27926        1.32483
C          2.46735       -1.14298       -0.52807
C          3.58771       -0.21535       -0.98641
N          1.81709       -0.55029        0.65928
N          4.50723        0.01254        0.12874
H          1.29439        0.31160        0.34624
H         -2.86615       -1.11223        0.69385
H         -3.02046       -2.86689        0.46794
H         -0.73534       -3.01575       -0.37754
H         -0.65169       -1.26726       -0.55586
H         -0.85239       -1.12318        1.86251
H         -0.65932       -2.75686        1.98156
H         -4.02063       -1.92141       -1.40521
H         -2.80972       -0.84750       -1.62696
C         -2.57652       -1.95575        0.04788
C         -1.05266       -2.07041        0.07407
N         -3.01669       -1.80070       -1.33384
N         -0.44877       -1.94549        1.40949
