15
1sa2a_03.log	Energy: -510337.4231873
S         -0.81862       -0.05790       -0.01336
O         -0.36149        0.58214       -1.25668
O         -0.51350       -1.49209        0.09992
O         -0.40519        0.71070        1.19137
O         -2.43626        0.05656       -0.09567
H         -2.80690       -0.54576        0.56308
N          1.89775        1.47368        0.02798
H          1.36119        1.57429       -0.84377
H          2.57495        2.21604        0.16671
H          1.14885        1.44250        0.75768
H          2.32617        0.48990        0.01381
N          2.50382       -1.22996       -0.01231
H          1.52578       -1.53903        0.04497
H          3.00217       -1.66034        0.76063
H          2.88606       -1.61568       -0.87054
