31
1sa2eda_89.log	Energy: -678442.1165855
S          1.91998       -0.39938       -0.02655
O          1.89213       -1.39380       -1.09664
O          1.39198        0.93473       -0.45382
O          1.35025       -0.78873        1.26789
O          3.49985       -0.14648        0.30698
H          3.98650       -0.26053       -0.51963
H         -2.37569        2.54208        1.13209
H         -0.94672        3.28200        1.89117
H         -1.41174        4.16052       -0.40088
H          0.20635        3.46861       -0.22536
H         -1.28055        2.82547       -2.23273
H         -0.40556        1.66377       -1.49463
H         -0.57671        1.00794        2.22042
H         -1.34851        0.54733        0.76450
C         -1.28745        2.63633        1.07786
C         -0.86398        3.22288       -0.26773
N         -0.70668        1.28173        1.24975
N         -1.18419        2.31060       -1.36532
H          0.21966        1.20372        0.77132
H         -2.18003       -1.72135       -1.80166
H         -0.68464       -0.89859       -1.33684
H         -0.61252       -3.22294       -0.60140
H         -0.61060       -2.14206        0.78481
H         -2.90034       -3.72192       -0.14502
H         -2.24164       -3.66521        1.34556
H         -2.70747        0.37881       -0.80164
H         -3.13527       -0.82253        0.27160
C         -1.59857       -1.35189       -0.94369
C         -1.23146       -2.51592       -0.03450
N         -2.35610       -0.34715       -0.18062
N         -2.45291       -3.10651        0.52708
