31
1sa2eda_121.log	Energy: -678441.6289667
S          0.19603       -1.18050       -0.08933
O          0.02046       -0.54677        1.23272
O          0.31771       -0.11755       -1.16441
O          1.31833       -2.11977       -0.18174
O         -1.11349       -1.99308       -0.41837
H         -1.95653       -1.46863       -0.14028
H          4.31123        1.55284       -0.54934
H          2.86830        2.22052       -1.36045
H          2.85597        2.56926        1.16126
H          1.45973        1.65649        0.57006
H          3.45015        0.70276        2.34874
H          2.04343       -0.02498        1.84935
H          3.41426       -0.13006       -2.00615
H          3.08477       -0.56322       -0.42401
C          3.22502        1.47382       -0.64717
C          2.54340        1.61678        0.71963
N          2.89685        0.12586       -1.16991
N          2.88214        0.46681        1.54727
H          1.82407        0.03687       -1.33573
H         -3.92293        0.93506        1.52189
H         -2.25593        0.34821        1.77525
H         -2.22345        2.48017        0.56514
H         -1.59847        1.17108       -0.44648
H         -4.20734        2.46405       -0.73300
H         -3.08236        2.13413       -1.87725
H         -3.83998       -1.35339        0.89828
H         -3.87913       -0.48944       -0.50310
C         -3.02488        0.54038        1.02286
C         -2.50449        1.56573        0.02249
N         -3.31036       -0.71555        0.31250
N         -3.50586        1.79193       -1.02376
