31
1sa2eda_52.log	Energy: -678440.2247449
S         -0.00033        1.78756       -0.00049
O          1.17797        2.50710        0.44678
O         -1.17908        2.50582       -0.44861
O          0.41657        0.80748       -1.16272
O         -0.41651        0.80855        1.16288
H          1.42808        0.52362       -1.03107
H         -1.42771        0.52330        1.03168
H         -3.86158       -0.54756       -1.07920
H         -2.26979        0.19455       -1.33342
H         -2.08357       -2.23959       -1.57793
H         -1.19077       -1.69348       -0.15231
H         -3.79896       -3.03086       -0.10648
H         -2.42375       -3.46485        0.66278
H         -3.37229        1.04593        0.66049
H         -3.31574       -0.47461        1.32135
C         -2.84796       -0.44876       -0.66534
C         -2.19554       -1.82060       -0.56788
N         -2.86511        0.16598        0.67071
N         -2.96464       -2.66988        0.34451
H          3.85904       -0.54728        1.08319
H          2.26584        0.19250        1.33535
H          2.08174       -2.24203        1.57530
H          1.19156       -1.69459        0.14851
H          3.80122       -3.02926        0.10661
H          2.42827       -3.46335       -0.66661
H          3.37008        1.04973       -0.65403
H          3.31945       -0.46960       -1.31832
C          2.84619       -0.44893        0.66734
C          2.19553       -1.82132        0.56615
N          2.86544        0.16836       -0.66748
N          2.96762       -2.66838       -0.34577
