31
1sa2eda_69.log	Energy: -678442.3785142
S          0.12585       -0.83455       -0.25211
O          1.33856       -1.35557       -0.89754
O         -0.14463       -1.31544        1.10543
O          0.13199        0.68215       -0.29799
O         -1.08745       -1.26886       -1.17738
H          1.49122        1.16101       -0.66510
H         -1.94638       -1.13932       -0.63788
H          4.18314        2.06938        0.33277
H          2.58808        2.26276        1.11709
H          4.00169        0.32903        2.02634
H          2.39940       -0.14805        1.46904
H          4.82279       -1.12042        0.49194
H          3.30723       -1.39692       -0.12543
H          2.61254        2.24799       -1.40850
H          2.99545        0.62373       -1.27004
C          3.20778        1.60621        0.50290
C          3.37581        0.21967        1.13577
N          2.54127        1.42755       -0.81280
N          3.97493       -0.68402        0.15821
H         -3.04118        1.55537        1.44482
H         -4.43189        2.13750        0.54811
H         -4.91090       -0.08070        1.24094
H         -4.71236       -0.09453       -0.51735
H         -2.55428       -0.91099        1.31999
H         -3.55988       -1.93628        0.54743
H         -1.77272        1.43477       -0.49564
H         -3.07886        1.61170       -1.48508
C         -3.58504        1.44064        0.49879
C         -4.17428        0.02700        0.43040
N         -2.69884        1.84774       -0.57506
N         -3.14024       -1.01306        0.49151
