21
1sa2ma_13.log	Energy: -559654.4238749
S         -1.29670       -0.13248       -0.04620
O         -0.70455        0.24443        1.27530
O         -1.22210        0.98743       -0.99509
O         -0.82529       -1.42113       -0.54993
O         -2.87115       -0.40045        0.25715
H         -3.26554        0.43510        0.53987
N          1.64920        1.31988        0.58775
H          1.95666        0.44219        0.03508
H          0.71368        1.03042        0.99131
C          1.50756        2.49263       -0.30523
H          1.19868        3.36245        0.27509
H          2.45900        2.69232       -0.80000
H          0.73177        2.25540       -1.03399
H          2.30483        1.49043        1.34615
N          2.08181       -1.07224       -0.68563
H          1.14257       -1.21518       -1.06702
C          2.27252       -2.04320        0.40258
H          2.20695       -3.08346        0.06647
H          3.24758       -1.88756        0.87417
H          1.48821       -1.88315        1.14649
H          2.75004       -1.23170       -1.43276
