31
1sa2eda_38.log	Energy: -678443.1510851
S         -1.04966        1.67593        0.06524
O         -1.67772        0.84577       -0.98297
O         -1.85204        2.77986        0.56448
O         -0.39390        0.82851        1.09598
O          0.26544        2.36051       -0.66104
H         -0.04589        3.14310       -1.13411
H         -0.93346       -3.54375       -0.00830
H         -0.53704       -2.77139        1.55061
H         -3.02551       -2.99695        1.13579
H         -2.51094       -1.32676        1.39502
H         -3.93497       -2.14676       -0.74488
H         -2.93115       -0.84085       -0.80192
H          0.76577       -1.80614       -0.36527
H         -0.73616       -1.33732       -1.00785
C         -0.99956       -2.62034        0.57220
C         -2.45662       -2.17247        0.69645
N         -0.24002       -1.57098       -0.14104
N         -2.97800       -1.84322       -0.62625
H         -0.24140       -0.67620        0.41371
H          3.62240       -0.08051       -1.64642
H          1.87235        0.18905       -1.57554
H          3.03289        1.50972        0.13507
H          1.93379        0.35932        0.86599
H          4.85131        0.10154        0.77546
H          3.85548        0.01044        2.06537
H          2.68861       -2.22138       -1.67600
H          3.13781       -1.99929       -0.11256
C          2.71979       -0.25527       -1.04273
C          2.87075        0.43846        0.30793
N          2.48181       -1.69512       -0.83298
N          3.93481       -0.21074        1.07988
