33
1sa2tma_09.log	Energy: -658285.3294541
S         -0.16048       -0.65592       -0.23352
O          0.90689       -1.33448       -0.94876
O         -0.39159        0.75401       -0.58999
O         -1.45291       -1.40556       -0.16063
O          0.26996       -0.64801        1.35176
H          1.21256       -0.43200        1.39545
N         -3.39849        0.29184        0.02785
C         -3.46828        1.01258       -1.26595
H         -2.49233        1.46293       -1.44931
H         -3.68673        0.29173       -2.05464
H         -4.25440        1.77065       -1.21922
C         -4.63071       -0.47315        0.31336
H         -4.80150       -1.18406       -0.49577
H         -4.49768       -1.01865        1.24811
H         -5.47876        0.21127        0.39649
C         -3.03270        1.20013        1.14141
H         -2.91440        0.60875        2.05002
H         -2.08042        1.66922        0.89340
H         -3.81885        1.94788        1.27512
H         -2.59008       -0.42633       -0.05981
N          4.26012        0.55574        0.25243
C          4.49814        0.33890       -1.16656
H          4.78345        1.28359       -1.63973
H          5.32271       -0.36877       -1.29677
H          3.60891       -0.06106       -1.68626
C          3.94423       -0.69665        0.91774
H          4.78334       -1.39238        0.81989
H          3.78724       -0.51756        1.98753
H          3.05169       -1.19237        0.49082
C          3.21058        1.54028        0.45432
H          3.05748        1.70303        1.52692
H          3.51045        2.49574        0.01277
H          2.24730        1.24971       -0.00545
