33
1sa2tma_02.log	Energy: -658298.3869096
S         -0.03169       -0.58714       -0.03801
O         -0.45158        0.30875        1.06174
O          0.77241       -1.73460        0.37724
O         -1.22615       -0.96193       -0.87630
O          0.84755        0.28040       -1.04720
H          1.80986        0.32431       -0.68624
N         -3.30502        0.26339       -0.04863
C         -3.00581        1.70967       -0.15519
H         -2.11711        1.91022        0.44425
H         -2.79472        1.94470       -1.19927
H         -3.86375        2.28987        0.19642
C         -4.41548       -0.14409       -0.93138
H         -4.16165        0.11104       -1.96101
H         -4.54982       -1.22363       -0.85454
H         -5.33526        0.36805       -0.63527
C         -3.52524       -0.14626        1.35714
H         -3.67819       -1.22600        1.38617
H         -2.62470        0.10193        1.91985
H         -4.40324        0.36847        1.75776
H         -2.40204       -0.26711       -0.39802
N          3.30279        0.34143       -0.06505
C          3.89050       -0.96125       -0.37761
H          3.22433       -1.74382       -0.00839
H          3.98160       -1.06839       -1.46181
H          4.88893       -1.07467        0.07623
C          4.08103        1.43533       -0.63497
H          4.15796        1.30603       -1.71780
H          3.57879        2.38562       -0.43430
H          5.09844        1.47875       -0.21158
C          3.13202        0.50511        1.37949
H          2.61726        1.44794        1.58063
H          2.51295       -0.30947        1.76054
H          4.10313        0.50474        1.90132
