31
1sa2eda_20.log	Energy: -678443.7226081
S         -2.10230        0.43096       -0.09973
O         -3.49889        0.02423       -0.14100
O         -1.44335        0.45490        1.21624
O         -1.24495       -0.24430       -1.11756
O         -2.08330        2.02042       -0.52771
H         -2.78117        2.14659       -1.18331
H          1.32882       -2.37507        1.71059
H         -0.32861       -1.73538        1.56808
H         -0.24622       -4.09164        0.75253
H         -0.63535       -2.97109       -0.55726
H          1.92456       -4.32541       -0.15917
H          1.05085       -4.14801       -1.52995
H          1.30924       -0.15909        0.71024
H          1.77786       -1.30158       -0.44625
C          0.53240       -2.10771        1.00926
C          0.16043       -3.28916        0.12331
N          1.01146       -0.99897        0.15756
N          1.32448       -3.68762       -0.67060
H          0.21241       -0.67570       -0.44883
H          3.44265        2.90945        0.11850
H          2.83694        2.67066       -1.52060
H          1.02588        3.29723        0.03132
H          0.74746        1.72906       -0.71734
H          1.75829        2.09490        2.01685
H          0.29285        1.49920        1.54998
H          4.18846        0.85345       -1.15983
H          3.64337        0.57945        0.34982
C          2.82576        2.24736       -0.51177
C          1.38793        2.26099       -0.00664
N          3.35939        0.88163       -0.57683
N          1.27801        1.57592        1.28783
