31
1sa2eda_127.log	Energy: -678439.2070877
S         -2.37184        0.07180        0.09097
O         -2.12279        0.93522       -1.08147
O         -2.50047       -1.35763       -0.20967
O         -1.41904        0.35402        1.19416
O         -3.83291        0.56430        0.60805
H         -4.19312       -0.13607        1.16803
H          1.76901        2.58991       -1.52787
H          0.65026        3.30687       -0.34005
H          2.91915        3.43867        0.49829
H          1.98837        2.33671        1.51241
H          4.32646        1.65690        0.64190
H          3.16654        0.50717        0.50438
H         -0.34076        1.31743       -1.07693
H          0.99011        0.36429       -0.83314
C          1.33941        2.48028       -0.53017
C          2.44406        2.45317        0.51512
N          0.52948        1.24049       -0.51328
N          3.44129        1.44269        0.19876
H          0.12090        1.02829        0.41802
H          2.35293       -3.53172       -0.32391
H          2.29344       -3.07863        1.38161
H          0.05315       -3.10178        0.35036
H          0.46194       -1.51065        0.98257
H          0.80722       -2.21886       -1.84492
H         -0.49789       -1.48073       -1.22773
H          4.04182       -1.87678        0.36744
H          3.07929       -1.29214       -0.80828
C          2.15925       -2.69313        0.36651
C          0.71707       -2.23970        0.20710
N          3.09192       -1.58135        0.16590
N          0.50924       -1.59307       -1.09961
