31
1sa2eda_136.log	Energy: -678436.7731353
S          2.29624       -0.03258       -0.03231
O          1.94443       -1.20835       -0.85169
O          2.27999        1.25748       -0.72414
O          1.55465       -0.01768        1.25642
O          3.85548       -0.31244        0.34923
H          4.24755        0.53467        0.59913
H         -1.90804       -0.60913        0.80151
H         -0.97426       -0.33774       -0.66459
H         -3.14392       -1.50073       -1.14032
H         -1.76922       -2.51515       -1.59386
H         -3.41116       -2.84951        0.80698
H         -3.03110       -3.96232       -0.32878
H          0.29365       -1.29672        1.23906
H         -0.61545       -2.74878        0.98201
C         -1.37551       -1.11393       -0.00760
C         -2.29722       -2.07327       -0.74222
N         -0.24599       -1.88565        0.57310
N         -2.68089       -3.15360        0.17071
H          0.47700       -2.07193       -0.14752
H         -2.72023        3.58099        0.00925
H         -2.62163        2.85697        1.61935
H         -0.39328        3.31153        0.69386
H         -0.61033        1.58904        0.97952
H         -0.83639        2.86752       -1.64612
H          0.32423        1.83899       -1.13897
H         -4.20674        1.70745        0.16216
H         -2.96483        1.28487       -0.82130
C         -2.43468        2.66592        0.55722
C         -0.94347        2.42200        0.35191
N         -3.21464        1.49685        0.14188
N         -0.66516        2.06879       -1.04123
