31
1sa2eda_55.log	Energy: -678445.0025267
S          0.34788       -1.60183        0.32698
O         -0.53824       -2.72951        0.57333
O          1.76534       -1.87069        0.08068
O         -0.13572       -0.89560       -1.06308
O          0.16120       -0.49271        1.33710
H         -1.12894       -0.75606       -1.00612
H          0.70756        0.79966        0.59789
H          2.42723        3.04142       -0.43280
H          2.20940        2.60260        1.28384
H          4.29702        1.57638        0.21638
H          3.18327        0.38486        0.90112
H          3.97638        0.52608       -1.77183
H          2.85595       -0.48742       -1.09131
H          0.11768        2.21239       -0.04491
H          1.02097        1.15540       -0.98919
C          2.24755        2.21714        0.26234
C          3.30858        1.12134        0.09906
N          0.94378        1.60451       -0.06598
N          3.14293        0.48397       -1.20246
H         -3.86114        0.91540        1.16244
H         -3.72372        2.47529        0.34939
H         -4.43940        0.81773       -1.21376
H         -2.82224        1.38635       -1.66836
H         -3.15317       -1.08224       -0.09869
H         -3.12474       -1.07415       -1.72686
H         -1.86435        2.17511        1.73814
H         -1.45481        0.74867        1.08574
C         -3.26178        1.48624        0.43341
C         -3.37926        0.80693       -0.92407
N         -1.87314        1.65640        0.86427
N         -2.82787       -0.55490       -0.90604
