21
1sa2ma_16.log	Energy: -559653.1048538
S          0.00003        0.45367        0.00030
O         -0.95263        1.17328       -0.82463
O          0.95349        1.17358        0.82405
O         -0.79190       -0.51938        0.95335
O          0.79091       -0.52182       -0.95117
H         -1.68987       -0.78888        0.49671
H          1.68938       -0.79028       -0.49486
N          3.05120       -0.97655        0.25868
H          2.81210       -0.81604        1.23389
C          3.96655        0.07337       -0.21406
H          4.91729        0.09212        0.32980
H          4.16807       -0.08207       -1.27610
H          3.46736        1.03665       -0.09586
H          3.47704       -1.89557        0.19270
N         -3.05090       -0.97723       -0.25789
H         -2.81088       -0.81937       -1.23331
C         -3.96682        0.07382        0.21121
H         -4.91698        0.09113       -0.33370
H         -4.16943       -0.07903        1.27341
H         -3.46756        1.03684        0.09117
H         -3.47662       -1.89614       -0.18977
