31
1sa2eda_10.log	Energy: -678445.5256750
S          1.38637       -1.36677       -0.06976
O          0.41360       -0.93214        0.98166
O          1.40013       -2.80390       -0.28879
O          1.30916       -0.48966       -1.24540
O          2.85900       -0.98248        0.55466
H          3.13278       -1.71437        1.12264
H         -0.15377        3.53775        0.40989
H          0.08981        2.50172        1.84330
H          2.25299        3.36909        0.82878
H          2.17561        1.60658        0.90127
H          2.60401        3.07198       -1.37784
H          2.11754        1.49382       -1.34617
H         -1.51174        1.54825        0.13022
H         -0.15134        1.47454       -0.89014
C          0.26046        2.59194        0.76803
C          1.74702        2.49165        0.41532
N         -0.45945        1.49216        0.08880
N          1.89573        2.43723       -1.03652
H         -0.17425        0.56477        0.49401
H         -4.62851       -0.27476       -0.59337
H         -3.53407        0.50423       -1.75022
H         -2.92173       -1.88432       -1.24581
H         -1.62336       -0.75780       -0.91417
H         -3.08666       -2.29588        1.01850
H         -1.56561       -1.66144        1.08306
H         -3.96867        1.87924        0.23125
H         -3.28271        0.69828        1.15305
C         -3.60240        0.09373       -0.73719
C         -2.61769       -1.06899       -0.57706
N         -3.26704        1.14620        0.23547
N         -2.53091       -1.47245        0.82458
