31
1sa2eda_104.log	Energy: -678442.1462793
S          1.98708       -0.85024       -0.01538
O          2.83108       -1.99418        0.28741
O          1.10208       -1.03563       -1.20040
O          1.25654       -0.22388        1.09910
O          3.01506        0.36699       -0.45920
H          3.75135       -0.04015       -0.93362
H          1.06008        1.88471       -1.03198
H         -0.27310        2.51974       -2.01044
H          0.45627        4.00067       -0.07458
H         -1.27065        3.61584       -0.05775
H          0.67719        2.07404        1.53508
H         -0.41003        3.17372        2.12453
H         -0.16890        0.07752       -1.06483
H         -0.83523        0.77843        0.28235
C         -0.00122        2.14751       -1.02117
C         -0.26958        3.18610        0.06659
N         -0.74182        0.89462       -0.74300
N         -0.21490        2.53407        1.36552
H         -1.70523        0.81236       -1.10828
H         -4.19075       -1.82800        0.31659
H         -3.51890       -2.06023       -1.30181
H         -2.06057       -2.95055        0.51640
H         -1.24609       -1.78546       -0.51007
H         -2.20965       -1.25766        2.20134
H         -0.70843       -1.02966        1.57464
H         -4.33898        0.14823       -1.11162
H         -3.45359        0.42634        0.23631
C         -3.38570       -1.51081       -0.36488
C         -2.03340       -1.88544        0.24310
N         -3.45999       -0.06882       -0.65315
N         -1.70426       -1.00081        1.36015
