31
1sa2eda_64.log	Energy: -678442.0319219
S          1.74884       -1.18964       -0.04152
O          0.80064       -1.44976       -1.12633
O          2.86481       -0.28488       -0.33622
O          1.04588       -0.83746        1.22964
O          2.43839       -2.64440        0.23467
H          3.29839       -2.47802        0.64176
H         -2.51417       -1.56623        1.54637
H         -2.73392        0.16843        1.82099
H         -4.75152       -0.79789        0.74328
H         -3.97071        0.37272       -0.32514
H         -3.77713       -2.53914       -0.61340
H         -4.25404       -1.43084       -1.72362
H         -0.52692       -0.52812        0.79318
H         -1.37704       -0.93801       -0.55843
C         -2.63597       -0.59923        1.04969
C         -3.85537       -0.61550        0.13303
N         -1.41746       -0.33019        0.26804
N         -3.64187       -1.58616       -0.93286
H         -1.36785        0.67596       -0.06679
H         -0.31931        4.21504        0.07100
H         -0.91617        3.14409        1.35114
H          1.57861        3.22141        1.27157
H          0.96564        1.59372        0.99956
H          2.22306        3.29623       -0.97120
H          2.26737        1.65571       -0.78353
H         -1.92158        2.84342       -0.95063
H         -0.45834        2.22189       -1.37309
C         -0.38623        3.16520        0.39204
C          1.02503        2.59421        0.55905
N         -1.11133        2.34707       -0.59362
N          1.66947        2.47899       -0.74523
