31
1sa2eda_117.log	Energy: -678442.7433796
S          0.67003        1.67526       -0.29287
O          2.12461        1.65239       -0.12966
O          0.02910        2.95244       -0.55546
O          0.19243        0.58763       -1.22717
O          0.15122        1.13986        1.16440
H          0.32636       -0.74034       -0.47099
H         -0.82745        0.97153        1.14476
H         -4.35947       -0.30797        0.60308
H         -3.60317        1.14370       -0.06896
H         -3.54235       -0.66520       -1.67227
H         -1.89993       -0.17167       -1.20895
H         -3.26762       -2.50035       -0.02622
H         -2.22315       -2.58653       -1.25872
H         -2.85530        0.83081        2.15157
H         -2.29921       -0.66900        1.83464
C         -3.39709        0.13438        0.29730
C         -2.80926       -0.66680       -0.85432
N         -2.46105        0.24512        1.42152
N         -2.45622       -2.04021       -0.43338
H          2.75298       -0.88086       -1.05701
H          3.64712       -2.30597       -0.50907
H          1.27616       -2.80710       -1.33166
H          1.58305       -3.34729        0.34206
H         -0.51520       -2.03039        0.22717
H          0.71640       -1.21886        1.07560
H          3.78347       -1.27830        1.51293
H          2.88500       -0.00620        0.94866
C          2.80368       -1.64803       -0.27664
C          1.51308       -2.47751       -0.31704
N          2.93131       -1.02104        1.03482
N          0.42318       -1.60458        0.16800
