31
1sa2eda_108.log	Energy: -678440.0071936
S         -0.00027       -1.50519        0.00005
O         -1.25316       -2.23182        0.00941
O          1.25246       -2.23211       -0.00879
O          0.05080       -0.51435       -1.22982
O         -0.05110       -0.51359        1.22949
H         -0.74455        0.18222       -1.22076
H          0.74435        0.18245        1.21970
H          3.81375        1.86015        1.08195
H          3.47619        0.24670        1.74998
H          4.36911        0.21745       -0.61844
H          2.83385       -0.62082       -0.40426
H          3.31769        1.61551       -2.06182
H          1.95054        0.70937       -1.90698
H          1.65417        1.88000        2.06813
H          1.49259        1.93088        0.43008
C          3.16947        0.97497        0.99360
C          3.30501        0.36537       -0.40339
N          1.75886        1.33558        1.21689
N          2.65927        1.22737       -1.39978
H         -3.81267        1.86102       -1.08208
H         -3.47597        0.24741       -1.75020
H         -4.36918        0.21826        0.61801
H         -2.83412       -0.62044        0.40422
H         -3.31757        1.61664        2.06124
H         -1.95098        0.70936        1.90740
H         -1.65309        1.88011       -2.06782
H         -1.49147        1.93011       -0.42974
C         -3.16893        0.97546       -0.99372
C         -3.30497        0.36590        0.40324
N         -1.75810        1.33533       -1.21684
N         -2.65914        1.22763        1.39973
