31
1sa2eda_86.log	Energy: -678441.5167743
S          0.34967       -1.21389        0.09637
O         -0.70914       -2.14705       -0.34922
O         -0.14709        0.21392       -0.02791
O          0.92288       -1.46923        1.41423
O          1.50415       -1.35986       -0.98240
H          2.36674       -0.96417       -0.58299
H         -4.17850       -1.02507        0.39402
H         -2.72498       -0.56102        1.30199
H         -4.54246        1.14491        1.59202
H         -3.13460        1.82897        0.77544
H         -5.65673        1.08984       -0.51354
H         -4.81570        2.48660       -0.62910
H         -2.23397       -1.25639       -0.96624
H         -3.11586        0.12057       -1.52473
C         -3.38374       -0.27863        0.47890
C         -3.95997        1.11898        0.66206
N         -2.58204       -0.30317       -0.76384
N         -4.72157        1.48283       -0.53377
H         -1.64602        0.18247       -0.58919
H          4.78078        1.51551        0.25998
H          4.48729        0.83315       -1.35701
H          3.16925        2.90316       -0.92156
H          2.14302        1.50784       -1.28016
H          1.95131        3.08110        0.95628
H          1.26611        1.59550        0.76083
H          4.38162       -0.89155        0.33009
H          3.18382       -0.08923        1.10857
C          4.03427        1.02123       -0.37737
C          2.82205        1.93907       -0.53283
N          3.59992       -0.25934        0.19208
N          2.14399        2.11024        0.75140
