31
1sa2eda_63.log	Energy: -678441.5191526
S         -1.99233       -0.89825       -0.01078
O         -2.61946       -0.08077        1.03782
O         -1.79079       -0.18457       -1.29520
O         -0.79702       -1.62695        0.43923
O         -3.09935       -2.01951       -0.43332
H         -3.41766       -2.42922        0.38193
H          1.07539        3.16734       -0.51135
H         -0.21948        3.21703       -1.73190
H         -1.14021        3.75482        0.47134
H         -1.81932        2.24161       -0.12697
H         -0.20471        2.57724        2.19750
H         -1.17655        1.31882        1.73662
H          1.01336        1.25905       -2.09337
H          1.05180        0.76663       -0.45512
C          0.15077        2.68915       -0.84797
C         -0.90450        2.70427        0.25694
N          0.47655        1.29149       -1.23010
N         -0.45459        1.96710        1.43044
H         -0.40075        0.72369       -1.36102
H          2.61077       -2.15762        0.83788
H          1.77573       -1.83945       -0.67790
H          4.19859       -1.88093       -1.05715
H          3.58924       -0.24286       -1.33471
H          4.96693       -1.11033        1.10311
H          5.46326        0.01533        0.02905
H          0.90522       -0.49494        1.09207
H          2.37215        0.25989        1.28316
C          2.43597       -1.38942        0.06954
C          3.76580       -0.99937       -0.56050
N          1.76406       -0.21264        0.62036
N          4.64229       -0.40415        0.44973
