27
1sa2dma_08.log	Energy: -608975.8781792
S         -1.85260        0.02224       -0.08805
O         -3.20903        0.30906       -0.52637
O         -0.86867       -0.37418       -1.10452
O         -1.27963        1.05413        0.82923
O         -1.96458       -1.33600        0.84025
H         -2.82007       -1.30604        1.28740
N          1.27422        1.35110        0.11854
C          1.29220        1.92934       -1.23939
C          1.99575        2.14187        1.12863
H          0.26408        1.23782        0.42230
H          2.32240        1.99642       -1.59704
H          0.69963        1.27842       -1.88263
H          0.84310        2.92394       -1.21455
H          3.04682        2.23742        0.84688
H          1.54531        3.13285        1.20789
H          1.91748        1.63668        2.09215
H          1.68190        0.36756        0.08276
N          2.27878       -1.26204        0.08466
C          2.02354       -1.83400       -1.24324
C          1.49834       -1.93082        1.13253
H          3.26709       -1.35503        0.30087
H          0.97312       -1.66708       -1.49377
H          2.64817       -1.32764       -1.98455
H          2.23378       -2.91247       -1.28147
H          0.43315       -1.79180        0.93262
H          1.70276       -3.00964        1.18406
H          1.72822       -1.48312        2.10360
