31
1sa2eda_31.log	Energy: -678443.1881834
S          2.14519       -0.23855       -0.06327
O          2.01100       -1.62154        0.42444
O          1.18768        0.05690       -1.16918
O          2.15983        0.80342        0.96106
O          3.62694       -0.15065       -0.73653
H          3.76192       -0.95995       -1.24650
H         -1.55819        2.11213        1.75070
H          0.19595        1.88016        1.48408
H         -0.49494        4.10419        0.63289
H          0.04662        3.05375       -0.67654
H         -2.72563        3.79065       -0.10661
H         -1.93107        3.78961       -1.53541
H         -1.09256       -0.09295        0.79030
H         -1.91151        0.84882       -0.31784
C         -0.77196        2.00951        0.99611
C         -0.75231        3.20594        0.05607
N         -1.03850        0.78335        0.21404
N         -2.02824        3.29917       -0.65487
H         -0.24841        0.60117       -0.45389
H         -3.19581       -3.20587        0.15272
H         -2.90124       -2.73174       -1.51998
H         -0.83596       -3.44685       -0.39653
H         -0.72753       -1.78871       -0.97793
H         -1.26235       -2.49811        1.82060
H          0.13719       -1.92111        1.18264
H         -4.24195       -1.06712       -0.70809
H         -3.46562       -0.94495        0.71558
C         -2.72661       -2.43570       -0.48125
C         -1.22152       -2.42992       -0.24059
N         -3.32514       -1.10933       -0.27674
N         -0.88258       -1.90325        1.08925
