31
1sa2eda_24.log	Energy: -678445.1199839
S          1.46555       -1.19318       -0.04902
O          0.76353       -1.04085       -1.33188
O          2.80439       -0.59061       -0.02279
O          0.60506       -0.81125        1.10108
O          1.67710       -2.78989        0.20748
H          2.40313       -3.08146       -0.35973
H         -0.23918        3.54173        0.03014
H         -0.27630        2.71898        1.60959
H          2.05913        3.48011        0.94735
H          1.94366        1.73757        1.20713
H          2.57538        3.03307       -1.23805
H          2.61349        1.41937       -0.85975
H         -1.51095        1.48018       -0.18828
H          0.01046        1.34503       -0.97053
C          0.10330        2.66499        0.58656
C          1.63159        2.55394        0.54755
N         -0.46387        1.46392       -0.06456
N          2.06050        2.27208       -0.81747
H         -0.21799        0.60925        0.48353
H         -4.60667       -0.48566       -0.51478
H         -3.54879       -0.01440       -1.85540
H         -2.87701       -2.17474       -0.75227
H         -1.59601       -0.98323       -0.79127
H         -3.01613       -1.89688        1.55501
H         -1.45294       -1.41142        1.36901
H         -3.97099        1.83700       -0.34661
H         -3.31718        0.96537        0.88828
C         -3.59133       -0.14700       -0.76960
C         -2.56924       -1.20356       -0.34151
N         -3.27586        1.13444       -0.11677
N         -2.41656       -1.21022        1.11335
