31
1sa2eda_66.log	Energy: -678440.7740980
S         -0.07794        1.67203       -0.05904
O          1.03622        2.58216        0.12120
O         -1.40641        2.17519       -0.34909
O          0.27766        0.64028       -1.19670
O         -0.13439        0.77180        1.23610
H          1.30863        0.39917       -1.15691
H         -1.02131        0.21273        1.28048
H          4.14334       -0.28980        0.60788
H          2.67671        0.62525        1.01848
H          2.50961       -1.66674        1.89124
H          1.29355       -1.38167        0.64334
H          3.75183       -2.94055        0.30246
H          2.21156       -3.38195       -0.01682
H          3.31362        0.88379       -1.31919
H          3.05962       -0.73671       -1.54631
C          3.06353       -0.20369        0.42054
C          2.36730       -1.49971        0.81435
N          2.78694        0.07734       -0.99776
N          2.85382       -2.59877       -0.02382
H         -4.25223       -0.86019        0.57548
H         -3.39977        0.65772        0.19442
H         -3.43977       -0.83620       -1.76115
H         -1.78886       -0.54763       -1.20696
H         -3.31519       -3.01262       -0.81022
H         -1.81593       -2.81831       -1.42885
H         -2.72576       -0.42798        2.32839
H         -2.06743       -1.63462        1.42019
C         -3.27420       -0.41811        0.33628
C         -2.73073       -1.03658       -0.94622
N         -2.30973       -0.64359        1.42734
N         -2.46464       -2.46400       -0.73622
