31
1sa2eda_73.log	Energy: -678444.3934785
S         -0.64479       -1.75443       -0.13308
O          0.19779       -2.90748       -0.41392
O         -2.06949       -1.95955        0.12433
O         -0.09880       -1.07188        1.22697
O         -0.45563       -0.65967       -1.17255
H          0.88837       -0.91024        1.10651
H         -1.60881        0.28320       -1.00180
H         -3.35378        1.93918        0.81982
H         -2.59361        0.35842        1.18470
H         -1.28834        2.42036        2.04204
H         -0.38459        1.26782        1.06014
H         -0.99040        3.97631        0.37191
H          0.12860        2.91773       -0.24808
H         -3.27872        0.61588       -1.16543
H         -2.15592        1.87925       -1.27069
C         -2.48032        1.30281        0.64969
C         -1.17944        2.01590        1.02990
N         -2.40965        0.99988       -0.80393
N         -0.84548        3.03393        0.03309
H          3.37599        0.33882       -1.50547
H          3.63422        1.96465       -0.86907
H          4.32454        0.41677        0.77608
H          2.85467        1.21338        1.37013
H          2.72366       -1.41175        0.04093
H          2.92609       -1.25207        1.64811
H          1.54198        1.85564       -1.93354
H          1.01083        0.63224       -1.01429
C          3.00706        1.07244       -0.76777
C          3.23952        0.50722        0.62658
N          1.61621        1.45768       -1.00145
N          2.56035       -0.78238        0.82488
