27
1sa2dma_29.log	Energy: -608963.2385904
S         -0.07315        0.94272        0.05394
O          0.97011        1.63929        0.78929
O         -1.37276        1.59274       -0.11812
O          0.46858        0.79256       -1.48247
O         -0.24970       -0.47978        0.52099
H          1.43027        0.68427       -1.44717
H         -1.65340       -0.91287        0.32936
N          3.12516       -0.79564        0.66262
C          2.73489       -1.97904       -0.07491
C          3.89756        0.13836       -0.12492
H          2.31139       -0.33423        1.05443
H          3.62757       -2.55509       -0.34671
H          2.09862       -2.60949        0.55051
H          2.18133       -1.75930       -1.00870
H          4.88349       -0.28532       -0.34901
H          3.43684        0.39368       -1.10454
H          4.03613        1.06868        0.42900
N         -2.70901       -1.15447        0.16309
C         -3.02107       -0.86927       -1.25905
C         -3.51968       -0.36276        1.11955
H         -2.82360       -2.14940        0.34976
H         -2.81679        0.18769       -1.43250
H         -2.36607       -1.47173       -1.88861
H         -4.06782       -1.10289       -1.46300
H         -3.29447        0.68947        0.94304
H         -4.58085       -0.56778        0.96507
H         -3.22519       -0.63066        2.13446
