31
1sa2eda_122.log	Energy: -678440.8839687
S          0.04149       -0.43591        0.63593
O          1.22850       -0.64413        1.48032
O         -0.50193        0.92496        0.64970
O          0.31435       -0.89979       -0.78083
O         -1.05508       -1.43537        1.19575
H          1.79371       -1.04545       -0.92081
H         -1.84759       -1.47914        0.55393
H         -3.11849        0.52419        1.01099
H         -4.68722        0.76074        0.21560
H         -3.81422        0.04639       -1.91567
H         -2.14140        0.23096       -1.36152
H         -3.96227       -1.79395       -0.25593
H         -2.76238       -2.07277       -1.33221
H         -3.73379        2.87429        0.37356
H         -2.28240        2.35832       -0.16770
C         -3.60209        0.85258        0.07964
C         -3.14717       -0.06563       -1.05175
N         -3.28680        2.23285       -0.27195
N         -3.05840       -1.45966       -0.57875
H          4.42435        0.22673       -1.66252
H          2.81360        0.52450       -2.37967
H          3.55892        2.28890       -0.69252
H          2.01698        1.53442       -0.28924
H          4.28844        1.54050        1.31391
H          2.90950        0.64931        1.54944
H          3.24946       -1.79648       -1.48153
H          3.20235       -1.08762        0.03218
C          3.35353        0.30219       -1.45680
C          3.09416        1.35225       -0.37081
N          2.88673       -1.01272       -0.94563
N          3.65150        0.87912        0.89257
