31
1sa2eda_57.log	Energy: -678443.6373108
S          2.30876        0.17866       -0.04303
O          1.88863        0.30645       -1.45442
O          3.56579        0.82072        0.30255
O          1.16751        0.44438        0.87612
O          2.54450       -1.43245        0.20211
H          3.46713       -1.62008       -0.01349
H         -0.53194        2.92892       -0.56025
H         -1.75849        2.57373       -1.79571
H         -2.78014        3.27795        0.38204
H         -3.30256        1.68354       -0.12134
H         -1.85542        0.69938        1.50223
H         -1.25031        2.16888        1.93058
H         -0.02321        0.84424       -1.68490
H         -0.23812        0.66241       -0.10907
C         -1.34956        2.25602       -0.83261
C         -2.43770        2.24607        0.25004
N         -0.76857        0.90346       -0.97892
N         -2.05790        1.69847        1.53619
H         -1.49842        0.16647       -1.13102
H         -2.79684       -3.12660        0.00065
H         -1.91457       -2.94934       -1.52151
H         -0.38538       -3.23376        0.41764
H         -0.10653       -1.73474       -0.44059
H         -1.39769       -1.99384        2.16035
H         -0.16163       -1.02072        1.68082
H         -3.57028       -1.28708       -1.46287
H         -3.13470       -0.79574        0.03414
C         -2.13242       -2.45909       -0.56793
C         -0.82852       -2.25293        0.19744
N         -2.77532       -1.16313       -0.84400
N         -1.04724       -1.43243        1.39077
