31
1sa2eda_130.log	Energy: -678438.6151768
S         -0.22362       -0.46008        0.20346
O         -0.52188       -1.11719       -1.07596
O         -0.14508        1.01627        0.12253
O         -1.20236       -0.90768        1.25395
O          1.19358       -0.96161        0.70937
H          1.82801       -0.15091        0.80176
H         -5.12903       -0.08761       -0.47191
H         -4.61377       -0.32902        1.22081
H         -4.26068        2.05201        0.39404
H         -2.77361        1.26879        0.94583
H         -3.31653        2.16275       -1.69224
H         -1.90806        1.56205       -1.04926
H         -3.74207       -2.04276       -0.37503
H         -2.88201       -0.80973       -1.11233
C         -4.27522       -0.08568        0.21121
C         -3.53986        1.25983        0.16462
N         -3.31986       -1.12946       -0.23329
N         -2.91182        1.41932       -1.14053
H         -2.48685       -1.19198        0.45881
H          4.96013       -0.23864        0.80931
H          5.57826        0.25386       -0.77114
H          4.41619        2.14739        0.00202
H          3.30047        1.38413       -1.14791
H          3.11712        1.29578        1.77648
H          1.98837        1.81538        0.69678
H          4.55923       -1.90360       -0.95582
H          3.09886       -1.31673       -0.50244
C          4.65967        0.01268       -0.22479
C          3.78926        1.26405       -0.17720
N          3.98638       -1.06847       -0.93108
N          2.73768        1.14240        0.84700
