31
1sa2eda_06.log	Energy: -678446.1219031
S         -0.72417       -1.78923       -0.02549
O         -0.60132       -3.24009       -0.02999
O         -0.54064       -1.09896        1.25896
O          0.02509       -1.10762       -1.11869
O         -2.31056       -1.48819       -0.38198
H         -2.64192       -2.26221       -0.85457
H          2.68414        1.20715        1.60390
H          1.73297       -0.30121        1.59617
H          4.07403       -0.75657        0.86132
H          2.91548       -1.06005       -0.43717
H          4.73241        1.22315       -0.25867
H          4.41698        0.25091       -1.53452
H          0.50583        1.50693        0.53812
H          1.75751        1.63620       -0.61549
C          2.27481        0.41231        0.97215
C          3.37326       -0.27193        0.16879
N          1.29566        1.01088        0.04435
N          4.00098        0.70058       -0.72823
H          0.82528        0.25458       -0.50727
H         -2.36359        0.74728        0.42789
H         -3.06127        2.17772        1.17855
H         -3.01107        2.56963       -1.14699
H         -1.77077        3.61512       -0.44560
H         -1.14836        1.01539       -1.68016
H         -0.92802        2.47393       -2.38807
H         -0.98513        2.68606        2.09055
H         -0.94403        1.03794        2.09054
C         -2.17407        1.80049        0.65228
C         -2.02470        2.56822       -0.65651
N         -0.96975        1.86369        1.49630
N         -0.96691        2.00057       -1.49205
