31
1sa2eda_102.log	Energy: -678442.7809549
S          0.15063       -1.69253       -0.07310
O         -0.23054       -0.86019       -1.26808
O         -0.58603       -2.94551       -0.00815
O          1.60535       -1.73658        0.11636
O         -0.34512       -0.77002        1.18588
H         -1.32833       -0.64555        1.06075
H          2.47024        0.12752       -1.49380
H          2.59122        1.84093       -1.95853
H          4.40137        0.93552       -0.34147
H          3.60017        2.42325        0.18631
H          2.77826       -0.25331        1.11969
H          3.48416        0.94973        2.02558
H          0.41004        0.56909       -0.96880
H          1.11664        1.15553        0.42961
C          2.42313        1.15488       -1.12724
C          3.44472        1.35417        0.00007
N          1.05029        1.33309       -0.58973
N          2.91245        0.75423        1.21467
H          0.60926        2.24263       -0.71508
H         -3.64482        2.15130        0.83540
H         -3.08790        2.82060       -0.70066
H         -3.98683        0.67079       -1.15340
H         -2.22743        0.52855       -1.33479
H         -3.74128       -0.40163        0.99571
H         -2.93143       -1.30196       -0.10443
H         -1.49741        3.11266        1.12407
H         -1.26319        1.50316        1.18113
C         -2.87771        2.05081        0.04926
C         -3.03136        0.68644       -0.61087
N         -1.51892        2.26835        0.56048
N         -2.93879       -0.40248        0.37271
