27
1sa2dma_02.log	Energy: -608977.4911032
S          1.87672       -0.03700       -0.11376
O          3.24986        0.20540       -0.52481
O          1.33533        0.97684        0.83834
O          0.89550       -0.34718       -1.16680
O          1.91392       -1.43684        0.75607
H          2.78869       -1.49432        1.16128
N         -1.21047        1.44474        0.15262
C         -1.99219        2.13119        1.19268
C         -1.19582        2.12057       -1.15904
H         -0.20968        1.32220        0.47308
H         -3.03506        2.21399        0.87894
H         -1.93228        1.55516        2.11698
H         -1.58116        3.12800        1.36357
H         -2.21499        2.20013       -1.54407
H         -0.76155        3.11633       -1.05127
H         -0.57791        1.52253       -1.83004
H         -1.55546        0.43653        0.01853
N         -1.71442       -1.24023       -0.19530
C         -2.82205       -1.81981       -0.94618
C         -1.50322       -1.88137        1.10254
H         -0.84652       -1.30933       -0.73162
H         -3.76111       -1.65312       -0.40797
H         -2.89688       -1.33665       -1.92383
H         -2.70628       -2.90261       -1.10126
H         -2.36708       -1.69416        1.75000
H         -1.36621       -2.96847        1.01532
H         -0.60687       -1.46502        1.56895
