21
1sa2ma_14.log	Energy: -559652.8124626
S          0.00821       -0.52772        0.12103
O          0.75632       -0.72664        1.35928
O         -1.15958       -1.42104       -0.08151
O         -0.41099        0.90824       -0.07124
O          0.98127       -0.86393       -1.09300
H          1.92066       -0.56401       -0.83294
N         -2.88371        0.49556       -0.65234
H         -2.56548       -0.49990       -0.62362
H         -1.91117        0.94083       -0.52293
C         -3.76821        0.80988        0.48755
H         -3.96165        1.88214        0.51566
H         -4.70615        0.26142        0.39910
H         -3.25103        0.51006        1.39876
H         -3.28951        0.72654       -1.55480
N          3.28161        0.00540       -0.07681
H          3.09148       -0.40684        0.83420
C          3.21563        1.46943        0.00858
H          3.94349        1.89832        0.70814
H          3.38660        1.89611       -0.98281
H          2.20956        1.75223        0.32709
H          4.19581       -0.30907       -0.38319
