31
1sa2eda_93.log	Energy: -678441.5488714
S          2.47785       -0.11527       -0.03833
O          2.32214       -1.56509        0.16800
O          1.75706        0.42713       -1.19312
O          2.23868        0.66467        1.20726
O          4.04598        0.12178       -0.40886
H          4.57556       -0.36064        0.23973
H         -0.49981        3.13581        0.46961
H          0.13101        2.13455       -0.86211
H         -2.25542        3.01158       -1.24880
H         -2.07465        1.27156       -1.37025
H         -3.54255        2.70575        0.64179
H         -3.68204        1.13623        0.14284
H          0.56183        1.05963        1.20454
H         -1.11935        1.13763        1.58918
C         -0.63706        2.20656       -0.08983
C         -2.04890        2.10745       -0.66415
N         -0.42193        1.07972        0.84578
N         -3.02541        1.87069        0.39875
H         -0.55593        0.14359        0.35799
H         -1.84556       -3.26492       -0.43069
H         -1.24525       -2.82064        1.16917
H         -3.65604       -2.33374        1.01060
H         -2.71810       -0.86855        1.26170
H         -2.89459       -0.68650       -1.27449
H         -4.14250       -1.72328       -1.13564
H          0.32231       -1.81994       -0.12675
H         -0.67911       -1.45438       -1.34004
C         -1.63981       -2.41264        0.23295
C         -2.93654       -1.66030        0.53434
N         -0.63099       -1.50454       -0.32689
N         -3.58772       -1.04499       -0.62494
