27
1sa2dma_09.log	Energy: -608975.0315447
S          0.06933       -0.47382       -0.11239
O          0.91688       -0.74455        1.08345
O          0.93972       -0.08106       -1.26576
O         -0.89351       -1.52915       -0.42881
O         -0.76403        0.83486        0.24865
H         -1.77380        0.63874        0.13525
N          3.15487        0.22903        0.07132
C          3.40156        1.63268        0.44712
C          4.35319       -0.57080       -0.22650
H          2.54163       -0.22941        0.78798
H          3.91624        2.14246       -0.36921
H          2.43754        2.10922        0.62849
H          4.01038        1.67110        1.35238
H          4.88248       -0.13013       -1.07315
H          5.00911       -0.59330        0.64594
H          4.04057       -1.58443       -0.47811
H          2.44420        0.18903       -0.71913
N         -3.26488        0.12968       -0.06203
C         -4.10578        0.93190       -0.94289
C         -3.88124       -0.16221        1.22886
H         -2.99884       -0.74355       -0.51451
H         -4.26832        1.91479       -0.48992
H         -3.59724        1.07574       -1.89885
H         -5.08710        0.47019       -1.12712
H         -4.03040        0.77330        1.77670
H         -4.85436       -0.66462        1.12773
H         -3.21017       -0.79934        1.80899
