33
1sa2tma_03.log	Energy: -658298.5049504
S         -0.03989       -0.71854        0.00824
O         -0.72641        0.49930        0.59976
O          0.79669       -1.39505        0.99888
O         -1.02899       -1.54411       -0.70025
O          0.92432       -0.14210       -1.11873
H          1.84037        0.08231       -0.69992
N         -3.20962        0.45300        0.03558
C         -3.79672        1.66721        0.63405
H         -3.62656        1.64802        1.71130
H         -3.30442        2.54351        0.21048
H         -4.86986        1.70655        0.42670
C         -3.31517        0.44887       -1.44116
H         -2.84290        1.35295       -1.82786
H         -2.77498       -0.42293       -1.81131
H         -4.36881        0.41982       -1.73401
C         -3.76548       -0.78603        0.62529
H         -3.22606       -1.63137        0.19732
H         -3.59885       -0.76396        1.70320
H         -4.83645       -0.84875        0.41159
H         -2.12809        0.46444        0.27991
N          3.26697        0.41916       -0.06074
C          3.00488        1.07997        1.21845
H          2.46265        2.01241        1.04081
H          2.37886        0.42885        1.83218
H          3.94181        1.30668        1.75335
C          3.92256       -0.87332        0.14199
H          3.27653       -1.50300        0.75697
H          4.06415       -1.36295       -0.82519
H          4.90448       -0.75565        0.62911
C          4.03709        1.27547       -0.95603
H          4.16532        0.77703       -1.92054
H          3.49906        2.21298       -1.11990
H          5.03268        1.50722       -0.54268
