31
1sa2eda_37.log	Energy: -678442.1328129
S         -1.65725       -1.28886       -0.00666
O         -2.94805       -0.60628       -0.02922
O         -0.79396       -1.11680       -1.18065
O         -0.89804       -1.06784        1.26245
O         -1.99897       -2.89077       -0.01991
H         -2.82358       -3.00725        0.46935
H          2.05601       -2.07484        0.09780
H          1.58989       -1.08379       -1.28074
H          4.08349       -1.43116       -1.21285
H          3.67947        0.27702       -1.01585
H          4.46058       -1.52566        1.15784
H          5.13712       -0.10077        0.72846
H          0.58330       -0.48937        0.91694
H          2.14717        0.06144        1.34725
C          2.15242       -1.08020       -0.34708
C          3.61605       -0.70491       -0.53443
N          1.50750       -0.11178        0.56755
N          4.26092       -0.60663        0.77599
H          1.31033        0.80456        0.06604
H         -0.93727        2.99983       -1.72907
H         -0.86583        1.24073       -1.47997
H         -2.40250        2.26179        0.13150
H         -1.03222        1.55770        0.96614
H         -1.41670        4.41941        0.47612
H         -1.17631        3.65661        1.89584
H          1.33804        2.36310       -1.70521
H          1.04176        3.09507       -0.26470
C         -0.60714        2.20731       -1.04065
C         -1.32337        2.37031        0.29324
N          0.85123        2.26098       -0.82011
N         -0.92999        3.64255        0.91284
