27
1sa2dma_01.log	Energy: -608977.3588016
S          1.78654       -0.21504        0.01642
O          1.33238        0.91642        0.87913
O          2.12976       -1.41506        0.77229
O          0.88972       -0.39833       -1.13644
O          3.17284        0.30255       -0.67409
H          3.88727        0.12439       -0.04859
N         -1.18544        1.45574        0.15067
C         -1.97546        2.16047        1.17208
C         -1.14123        2.11855       -1.16674
H         -0.19137        1.32451        0.48598
H         -3.01211        2.25205        0.84065
H         -1.93636        1.59208        2.10218
H         -1.55611        3.15427        1.34048
H         -2.15164        2.19660       -1.57456
H         -0.70778        3.11475       -1.05919
H         -0.50970        1.51251       -1.81760
H         -1.54328        0.45063        0.02007
N         -1.76271       -1.21822       -0.20704
C         -2.93358       -1.73094       -0.90950
C         -1.51613       -1.89687        1.06652
H         -0.92679       -1.31875       -0.78633
H         -3.83555       -1.52445       -0.32361
H         -3.03164       -1.23163       -1.87709
H         -2.88121       -2.81603       -1.08163
H         -2.33216       -1.67763        1.76381
H         -1.44273       -2.98725        0.95155
H         -0.57579       -1.54001        1.49449
