31
1sa2eda_109.log	Energy: -678440.6108452
S         -0.08074        0.38199       -0.42722
O         -0.45043       -1.06902       -0.67024
O          0.94003        0.83531       -1.36419
O         -1.29465        1.20893       -0.32414
O          0.53528        0.40646        1.04469
H          1.39631       -0.14535        1.06198
H         -3.04910        0.01478       -1.35106
H         -4.34877       -1.20408       -1.34739
H         -4.91990        1.18246       -0.46182
H         -5.42066       -0.16645        0.57102
H         -2.91780        1.33356        0.97242
H         -4.24483        1.31161        1.97906
H         -1.79678       -1.36601       -0.20703
H         -2.86698       -0.96250        1.07432
C         -3.71775       -0.57190       -0.72088
C         -4.54946        0.36392        0.16912
N         -2.84650       -1.41970        0.14283
N         -3.72039        0.78791        1.29065
H         -3.16612       -2.38029        0.22179
H          4.18563       -1.76477       -0.39593
H          2.65011       -1.14856       -1.05593
H          4.44013        0.47376       -1.45707
H          3.22127        1.12846       -0.36472
H          5.89546        0.19790        0.39932
H          5.16289        1.61477        0.75720
H          2.49528       -2.03206        1.25591
H          3.43268       -0.76230        1.73409
C          3.40551       -0.99628       -0.28100
C          4.02025        0.38695       -0.44538
N          2.75813       -1.07653        1.03746
N          5.00158        0.62456        0.61894
