31
1sa2eda_07.log	Energy: -678445.1639284
S         -0.90873       -1.59112       -0.05778
O          0.10993       -2.64238       -0.01709
O         -1.01306       -0.74432        1.14135
O         -0.85787       -0.77321       -1.29999
O         -2.34773       -2.35917       -0.09291
H         -2.25109       -3.13212       -0.66464
H         -0.65504        3.61144       -0.09962
H         -0.87147        2.89014       -1.71818
H         -3.04035        3.16674       -0.44462
H         -2.71283        1.48935       -0.89832
H         -3.27134        2.26537        1.61282
H         -2.31139        0.96269        1.30859
H          0.98992        1.79793       -0.41977
H         -0.19772        1.37132        0.70854
C         -0.96144        2.71473       -0.64348
C         -2.38397        2.31351       -0.25091
N         -0.04199        1.61613       -0.27571
N         -2.41519        1.96598        1.16623
H         -0.28979        0.74189       -0.80190
H          4.41463        0.86249        0.53959
H          3.12102        1.61563        1.48728
H          3.13278       -0.86441        1.72013
H          1.62063       -0.29032        1.04278
H          3.69571       -1.71776       -0.39402
H          2.05916       -1.87106       -0.45505
H          3.30686        2.39322       -0.88073
H          2.81868        0.88255       -1.32076
C          3.32362        0.97614        0.62116
C          2.68861       -0.40100        0.82817
N          2.75540        1.59323       -0.58818
N          2.82323       -1.20172       -0.38492
