31
1sa2eda_11.log	Energy: -678443.8102398
S          1.20597       -1.71022       -0.13552
O          2.10661       -2.72324       -0.66513
O          1.71956       -0.89267        0.97032
O          0.50668       -0.88187       -1.15516
O         -0.06880       -2.56574        0.50259
H          0.29157       -3.39830        0.83313
H          0.22357        2.92344        1.20365
H          0.54877        1.18995        1.50972
H          2.66917        2.52752        1.50485
H          2.62331        1.28650        0.25508
H          2.34852        4.17273       -0.16128
H          3.22277        3.08417       -1.01225
H         -1.00065        1.77094       -0.39757
H          0.43358        2.31013       -1.17894
C          0.70049        2.01715        0.81573
C          2.18703        2.24016        0.56255
N          0.04761        1.67633       -0.47089
N          2.35235        3.22180       -0.51348
H          0.27076        0.68087       -0.74973
H         -4.52792        0.64604       -0.26270
H         -3.52239        0.91623       -1.69547
H         -3.39913       -1.43791       -0.85581
H         -1.82372       -0.65763       -0.88587
H         -3.37585       -1.26466        1.49149
H         -1.77787       -1.47184        1.17772
H         -3.25021        2.63043        0.06310
H         -2.64027        1.44793        1.03668
C         -3.48929        0.69837       -0.62301
C         -2.79802       -0.64500       -0.38895
N         -2.73494        1.75615        0.06752
N         -2.56834       -0.84699        1.04166
