27
1sa2dma_24.log	Energy: -608968.2140088
S          1.68454       -0.23987       -0.06216
O          1.34095       -1.61015       -0.44800
O          1.42513        0.15017        1.32145
O          3.30168       -0.12694       -0.21858
O          1.13412        0.76962       -1.02730
H          3.56048       -0.69938       -0.95266
H          0.01372        1.55827       -0.37294
N         -0.79642        2.18959       -0.03120
C         -1.18287        1.82831        1.35546
C         -1.90411        2.05742       -1.00584
H         -0.42283        3.13752       -0.04891
H         -1.59744        0.82114        1.31561
H         -0.28748        1.82255        1.97535
H         -1.92479        2.54135        1.72160
H         -2.23581        1.01802       -0.96066
H         -2.71647        2.73650       -0.73916
H         -1.52531        2.28772       -2.00189
N         -1.71338       -1.22550       -0.09915
C         -2.78970       -1.79844       -0.89365
C         -1.62097       -1.82801        1.22665
H         -0.82433       -1.39015       -0.56842
H         -3.75559       -1.57048       -0.42746
H         -2.78585       -1.36006       -1.89664
H         -2.72013       -2.89410       -0.99947
H         -2.50900       -1.56457        1.81532
H         -1.55000       -2.92730        1.19577
H         -0.73239       -1.44508        1.73529
