31
1sa2eda_88.log	Energy: -678442.1629961
S         -2.11581        0.13083       -0.03303
O         -3.55214       -0.01515       -0.20930
O         -1.25706       -0.10692       -1.19765
O         -1.88560        1.74630        0.26619
O         -1.58591       -0.54214        1.18745
H         -2.71569        2.07809        0.63154
H         -0.04761       -0.97770        1.21654
H          3.56179        2.08531       -0.65629
H          2.95006        0.53619       -1.29162
H          1.38204        2.43432       -1.73308
H          0.65505        1.14351       -0.79178
H          1.34494        3.78086        0.17864
H          0.05839        2.81095        0.50911
H          3.77530        0.44695        1.03913
H          2.51479        1.42799        1.44570
C          2.78315        1.31574       -0.54276
C          1.40498        1.93676       -0.75389
N          2.82450        0.70461        0.79410
N          1.06258        2.82430        0.35882
H          2.21796       -2.89259        0.79330
H          0.60999       -3.39665        1.37858
H          0.84793       -3.70524       -1.07116
H         -0.45790       -2.59104       -0.66153
H          1.61091       -2.03639       -2.35619
H          0.56382       -0.95736       -1.69751
H          1.10881       -1.34349        2.35696
H          1.63620       -0.60584        0.96550
C          1.14746       -2.67157        0.76125
C          0.63201       -2.70786       -0.67410
N          0.94928       -1.32258        1.35145
N          1.26024       -1.66725       -1.48208
