31
1sa2eda_111.log	Energy: -678441.3724973
S          2.36686       -0.12920       -0.06987
O          2.19974        0.53331        1.23487
O          1.04184       -0.35348       -0.72049
O          3.39860        0.42111       -0.93722
O          2.82942       -1.67198        0.25078
H          3.79500       -1.67772        0.27273
H         -1.19289        2.76987        1.46210
H          0.50138        2.53308        0.96394
H         -0.72638        3.54519       -0.88678
H         -0.22307        1.90360       -1.30784
H         -2.94935        2.70097       -0.58094
H         -2.43292        1.94862       -1.93584
H         -0.13649        0.57453        1.96368
H         -1.59856        0.39006        1.11428
C         -0.53084        2.22771        0.77992
C         -0.90261        2.48128       -0.67337
N         -0.61987        0.78116        1.08997
N         -2.26993        2.03792       -0.93959
H         -0.06857        0.25007        0.36764
H         -3.94650       -2.15097       -0.14275
H         -3.85173       -0.45343       -0.66172
H         -2.29598       -1.98446       -1.91816
H         -1.51597       -0.60811       -1.15308
H         -1.26628       -3.38133       -0.34681
H         -0.15081       -2.17057       -0.38132
H         -3.79489       -0.63857        1.74255
H         -2.44391       -1.57507        1.63890
C         -3.30400       -1.25718       -0.16066
C         -2.02360       -1.55340       -0.94422
N         -2.95761       -0.81363        1.19714
N         -1.11865       -2.39554       -0.16555
