31
1sa2eda_30.log	Energy: -678443.8325729
S          0.03424       -0.84183       -0.12587
O          0.39675        0.10797        0.95410
O         -0.46974       -0.17931       -1.33781
O          1.18821       -1.76504       -0.39144
O         -1.10565       -1.79039        0.41361
H          2.37683       -1.24208        0.31899
H         -2.03363       -1.42236        0.13116
H         -4.90329        0.62337        0.15799
H         -4.13767       -0.22248        1.52733
H         -3.39879        2.14460        1.27479
H         -2.05286        1.00068        1.19610
H         -2.43241        2.88376       -0.62133
H         -1.79886        1.42954       -1.03673
H         -4.11344       -1.56261       -0.48518
H         -3.23349       -0.41776       -1.25616
C         -3.95674        0.22079        0.54241
C         -2.94507        1.35765        0.66314
N         -3.42633       -0.82867       -0.34299
N         -2.62618        1.89145       -0.66182
H          4.87834        0.44094        0.18478
H          4.18303       -0.60113       -1.09217
H          3.65129        1.87867       -1.34681
H          2.21883        0.85157       -1.27750
H          2.75282        2.95434        0.42431
H          1.62905        1.76124        0.68282
H          3.82265       -1.37110        1.26918
H          2.81915       -0.04609        1.44250
C          3.95245        0.06564       -0.25849
C          3.06056        1.23438       -0.68926
N          3.22439       -0.71519        0.77420
N          2.61109        1.95663        0.49709
