33
1sa2tma_06.log	Energy: -658293.2167524
S          1.94324       -0.75460        0.05334
O          2.15044        0.24190        1.10705
O          1.72213       -2.13812        0.45997
O          0.92719       -0.27531       -0.94154
O          3.35727       -0.75225       -0.76721
H          3.45915       -1.62959       -1.15818
N         -0.20660        1.91695       -0.02696
C          0.90273        2.89593       -0.11920
H          1.73014        2.52211        0.48462
H          1.21817        2.97012       -1.16060
H          0.55707        3.86813        0.24117
C         -1.34279        2.26243       -0.90914
H         -0.98589        2.31551       -1.93857
H         -2.08747        1.47137       -0.81014
H         -1.75823        3.22705       -0.60647
C         -0.64429        1.71106        1.37611
H         -1.43258        0.95779        1.36265
H          0.21322        1.35066        1.94477
H         -1.01584        2.65776        1.77745
H          0.19405        0.98860       -0.37736
N         -2.43918       -0.82082       -0.00174
C         -1.83952       -1.72028        0.97795
H         -0.76785       -1.82338        0.79136
H         -1.98285       -1.32013        1.98763
H         -2.29384       -2.72746        0.94417
C         -3.86525       -0.67254        0.23506
H         -4.03798       -0.27725        1.24161
H         -4.29423        0.03010       -0.48789
H         -4.41077       -1.63058        0.14458
C         -2.17812       -1.29637       -1.35471
H         -2.59650       -0.59236       -2.08331
H         -1.09913       -1.36203       -1.51213
H         -2.63275       -2.28700       -1.54059
