31
1sa2eda_148.log	Energy: -678433.7888634
S          0.57717       -1.59948       -0.11551
O          2.03121       -1.47436       -0.05926
O         -0.11073       -0.92319       -1.21919
O          0.27319       -3.17841       -0.38883
O         -0.08216       -1.30740        1.19711
H          0.97108       -3.68518        0.04663
H         -1.02272       -0.09411        1.27245
H          2.61630        1.02534       -1.24961
H          2.62725        2.78711       -1.11655
H          1.53406        2.74193        1.00642
H          1.00503        1.06626        0.78019
H          3.00268        1.38964        2.24462
H          3.24829        0.37193        0.99140
H          0.85135        2.43753       -2.49720
H          0.39657        1.04677       -1.77063
C          2.03297        1.89192       -0.90926
C          1.83566        1.76811        0.60044
N          0.73780        1.99126       -1.59406
N          3.07658        1.34502        1.23457
H         -2.55190        2.42439        0.58730
H         -1.07165        1.83643       -0.22568
H         -3.15232        1.26259       -1.53398
H         -2.25407       -0.16589       -1.00865
H         -4.80420        0.77452        0.07048
H         -4.30593       -0.75292       -0.23804
H         -1.31308        1.27408        2.22511
H         -2.59824        0.29755        1.76062
C         -2.00673        1.53405        0.25811
C         -2.86625        0.66968       -0.65742
N         -1.70560        0.71858        1.46881
N         -4.00582        0.15059        0.10687
