31
1sa2eda_94.log	Energy: -678440.4571493
S         -0.08196       -0.88742       -0.08558
O          0.60932        0.37287        0.40703
O         -0.80703       -0.64360       -1.32969
O          0.87292       -2.01036       -0.09564
O         -1.13322       -1.25350        1.04786
H         -1.79794       -0.48181        1.15699
H          4.50358       -0.94853       -0.64894
H          2.87797       -0.68583       -1.32514
H          4.35456        1.29506       -1.76850
H          2.98810        1.70782       -0.72562
H          5.76821        1.38861        0.13030
H          4.70976        2.58100        0.48946
H          2.74458       -1.48831        0.91665
H          3.60360       -0.11650        1.46089
C          3.60127       -0.33249       -0.58826
C          3.92484        1.14398       -0.77002
N          2.98806       -0.50979        0.74790
N          4.79234        1.58523        0.32489
H          2.00766       -0.01847        0.73629
H         -3.46772        2.43519        0.09070
H         -2.00117        1.59374       -0.47003
H         -3.90730        0.99101       -1.88806
H         -3.30252       -0.40811       -1.00143
H         -5.77377        1.05998       -0.42488
H         -5.55222       -0.55092       -0.59491
H         -2.37885        1.44942        1.97029
H         -3.71546        0.53496        1.64950
C         -2.98069        1.45236       -0.00583
C         -3.82741        0.54394       -0.88739
N         -2.79700        0.80905        1.30335
N         -5.12535        0.29987       -0.24926
