31
1sa2eda_26.log	Energy: -678446.2142412
S         -0.18164        1.71812       -0.20302
O         -1.44855        2.43501       -0.32738
O          1.02853        2.47526        0.08773
O         -0.35351        0.75255        1.11687
O          0.00792        0.74561       -1.33594
H         -1.29782        0.41863        1.11726
H          1.07663       -0.35663       -1.28428
H         -1.51445       -1.13785       -1.34904
H         -2.05692       -2.81846       -1.24585
H         -3.92494       -1.50158       -0.60665
H         -3.29392       -2.17949        0.89932
H         -2.95678        0.59024       -0.03005
H         -3.60595        0.05908        1.37085
H         -0.45984       -1.47376        0.82542
H         -0.82801       -3.06589        0.75850
C         -1.81594       -1.92923       -0.65346
C         -3.07491       -1.47323        0.09013
N         -0.65718       -2.24358        0.18864
N         -2.89164       -0.14082        0.67926
H          3.45681       -2.04329       -0.49196
H          3.58410       -0.53133       -1.42735
H          3.97458       -0.11902        0.97884
H          2.55688        0.75086        0.40081
H          2.61964       -1.19907        2.43240
H          1.34895       -0.29019        1.90149
H          1.65168       -1.72207       -2.11195
H          1.02887       -1.85644       -0.57172
C          3.00570       -1.06246       -0.66640
C          2.94585       -0.24916        0.62383
N          1.63611       -1.27494       -1.19832
N          2.09946       -0.91161        1.61433
