31
1sa2eda_103.log	Energy: -678436.7224200
S         -0.04700       -1.35737        0.16236
O         -0.60675       -1.40328        1.50123
O          1.01401       -2.27519       -0.21549
O         -1.20066       -1.48788       -0.87990
O          0.48372        0.12036       -0.07437
H         -2.12643       -1.10371       -0.48277
H          1.39343        0.08407       -0.60491
H          3.47816        2.35422       -0.59337
H          4.77335        1.95505        0.53854
H          4.84947        0.20673       -1.02239
H          3.97684       -0.48724        0.35832
H          2.80006        0.42398       -2.16769
H          2.72687       -1.06858       -1.48352
H          2.81768        2.51962        1.77829
H          1.96133        1.28750        1.11235
C          3.78307        1.63916        0.19322
C          3.92186        0.25848       -0.43900
N          2.89676        1.60609        1.34811
N          2.75443       -0.07086       -1.28131
H         -3.97034        0.99145        1.42813
H         -2.29462        0.41576        1.59203
H         -2.33682        2.64041        0.52290
H         -1.71511        1.41783       -0.58755
H         -4.37546        2.63849       -0.69862
H         -3.27651        2.46286       -1.89657
H         -3.80137       -1.27093        0.66446
H         -4.02486       -0.29967       -0.65665
C         -3.08216        0.65697        0.87410
C         -2.61691        1.75845       -0.07027
N         -3.37416       -0.55368        0.08625
N         -3.65722        2.02412       -1.06716
