31
1sa2eda_139.log	Energy: -678438.0420724
S         -1.90845       -0.68768       -0.00138
O         -1.41742       -1.70447       -0.93220
O         -1.04087       -0.54875        1.20991
O         -2.24938        0.62268       -0.56062
O         -3.33131       -1.25423        0.55392
H         -3.27073       -2.21831        0.56930
H          1.37708        3.17313        0.90731
H          1.75206        1.42643        1.06653
H          1.70358        2.28341       -1.33440
H          0.65311        0.91288       -1.02655
H         -0.14969        3.45262       -1.92832
H         -1.12486        2.17277       -1.53122
H         -0.29539        2.33973        2.31708
H         -0.97015        2.49339        0.78678
C          1.03160        2.15834        0.69195
C          0.79385        1.97717       -0.80994
N         -0.28466        1.98106        1.36611
N         -0.36621        2.77000       -1.21548
H         -0.58566        0.95573        1.37119
H          4.08499       -2.01446       -0.07541
H          3.59083       -1.56537        1.56393
H          1.85054       -2.89691        0.45287
H          1.25137       -1.27860        0.81536
H          2.09472       -2.19976       -1.82585
H          0.62632       -1.65508       -1.34833
H          4.50436        0.31699        0.25558
H          3.20418        0.18439       -0.73998
C          3.38247       -1.38943        0.50284
C          1.95764       -1.83325        0.19031
N          3.53000        0.03816        0.21372
N          1.62904       -1.54336       -1.20616
