21
1sa2ma_04.log	Energy: -559654.5971096
S         -1.46834        0.26729       -0.04949
O         -2.81065        0.81187       -0.16545
O         -0.71698        0.02134       -1.29165
O         -0.60699        0.96238        0.95468
O         -1.65795       -1.25339        0.55641
H         -2.47037       -1.25214        1.07852
N          1.73487        1.15271       -0.30624
H          1.49404        1.59872       -1.18978
H          0.84487        1.16537        0.27364
C          2.87224        1.79556        0.37333
H          3.04508        1.28270        1.31960
H          3.76808        1.72469       -0.24499
H          2.64481        2.84312        0.57251
H          1.90057        0.11450       -0.51700
N          1.72147       -1.57143       -0.71597
H          0.80389       -1.48452       -1.15745
C          1.57595       -2.20687        0.60156
H          1.12833       -3.20548        0.55157
H          2.55605       -2.28387        1.08046
H          0.92782       -1.58475        1.22349
H          2.30721       -2.13362       -1.32445
