27
1sa2dma_17.log	Energy: -608973.4219132
S          0.10467       -0.80187       -0.01127
O          1.12526       -1.31853       -0.90662
O         -0.89310       -1.69952        0.54815
O          0.80422       -0.07517        1.19171
O         -0.63930        0.36096       -0.76794
H          1.73253        0.34730        0.88494
H         -1.61923        0.45682       -0.36744
N         -3.00247        0.42328        0.23631
C         -3.81856       -0.47771       -0.58270
C         -3.61619        1.73251        0.45224
H         -2.81677       -0.03065        1.12807
H         -3.92731       -0.04870       -1.58269
H         -3.30369       -1.43656       -0.66482
H         -4.81814       -0.63341       -0.15553
H         -3.72593        2.23755       -0.51147
H         -4.60720        1.65759        0.91999
H         -2.96731        2.34000        1.08691
N          3.05302        0.89465        0.41526
C          2.84510        1.54599       -0.88460
C          3.99820       -0.22640        0.34044
H          3.39235        1.57982        1.08478
H          2.43261        0.80843       -1.57661
H          2.11847        2.35364       -0.77355
H          3.77888        1.94830       -1.29884
H          3.56592       -0.99409       -0.30530
H          4.97263        0.08156       -0.06100
H          4.13583       -0.65132        1.33709
