31
1sa2eda_09.log	Energy: -678445.6201027
S         -0.32782        1.83068       -0.06986
O         -1.77834        2.03330       -0.02455
O          0.32065        1.54353        1.21348
O          0.07447        0.86688       -1.13639
O          0.32744        3.25844       -0.51342
H         -0.24056        3.63607       -1.19759
H         -1.72229       -2.08165        1.73947
H         -1.50389       -0.32658        1.53697
H         -3.78899       -0.99965        0.81717
H         -2.84440       -0.34710       -0.51716
H         -3.52367       -3.16486       -0.09862
H         -3.59477       -2.27912       -1.46972
H          0.41211       -1.55105        0.66345
H         -0.64380       -2.35207       -0.42718
C         -1.67049       -1.26778        1.00941
C         -2.93283       -1.20142        0.16078
N         -0.50363       -1.51272        0.13485
N         -3.05937       -2.43203       -0.62394
H         -0.35985       -0.71096       -0.51785
H          2.45579        0.44033        0.12771
H          3.80900       -0.22719        1.04165
H          4.01367       -1.09860       -1.12845
H          3.41988       -2.44506       -0.14933
H          1.64973       -0.76100       -1.78349
H          2.18355       -2.25116       -2.21347
H          2.30523       -1.56943        2.21882
H          1.45067       -0.17556        1.98761
C          2.85933       -0.48300        0.55315
C          3.13898       -1.47223       -0.57283
N          1.86637       -0.97971        1.51913
N          1.96005       -1.66079       -1.41979
