27
1sa2dma_28.log	Energy: -608964.3338410
S         -0.01779       -1.22202        0.03387
O          0.90098       -2.19619       -0.52222
O         -1.36003       -1.68944        0.43367
O          0.61463       -0.74176        1.46705
O         -0.12212        0.04161       -0.76679
H          1.57776       -0.71312        1.37103
H         -1.64765        0.65810       -0.56272
N          2.75710        1.21913       -0.70563
C          2.60979        2.16920        0.37679
C          3.68684        0.15218       -0.40454
H          1.85058        0.84086       -0.96385
H          3.56189        2.68393        0.55106
H          1.86538        2.92364        0.10757
H          2.30025        1.70972        1.33617
H          4.70680        0.54981       -0.34551
H          3.49297       -0.35940        0.56291
H          3.65351       -0.60505       -1.18997
N         -2.61221        0.62287       -0.13049
C         -3.67262        0.86759       -1.12460
C         -2.63663        1.49907        1.05933
H         -2.58773       -0.37045        0.17715
H         -3.57584        1.88236       -1.51323
H         -3.55871        0.15117       -1.93809
H         -4.65006        0.74255       -0.65589
H         -2.51520        2.53669        0.74535
H         -3.58527        1.37592        1.58395
H         -1.81019        1.20970        1.70947
