31
1sa2eda_04.log	Energy: -678446.1023249
S         -1.92053       -0.81898       -0.03858
O         -2.33819        0.42859       -0.70099
O         -1.11532       -1.70005       -0.89595
O         -1.31941       -0.61324        1.30052
O         -3.29392       -1.61834        0.32493
H         -3.82538       -1.66168       -0.48095
H          1.99393       -2.42014        0.76754
H          1.24163       -2.00504       -0.77920
H          3.72135       -2.24715       -1.04085
H          3.22370       -0.58105       -1.34940
H          4.50275       -1.53076        1.10848
H          4.96335       -0.30565        0.12894
H          2.01311        0.02017        1.21146
H          1.08743        0.27908       -0.17959
C          1.93488       -1.65489       -0.01226
C          3.31695       -1.34221       -0.56731
N          1.35320       -0.43279        0.57734
N          4.15832       -0.79695        0.49806
H          0.45614       -0.62206        1.06489
H         -1.33401        2.89552        0.05517
H         -0.13063        4.05490        0.62700
H          0.30248        3.47603       -1.67195
H          1.63881        2.93238       -0.63685
H         -0.53392        1.11463       -1.44354
H          0.87156        1.25394       -2.27737
H          0.02468        2.63924        2.33446
H         -0.59739        1.36713        1.53081
C         -0.27881        3.00918        0.33707
C          0.58771        2.75370       -0.89329
N          0.07290        2.13197        1.45922
N          0.45548        1.36546       -1.35819
