31
1sa2eda_40.log	Energy: -678443.6810168
S         -1.87331       -0.98319        0.04722
O         -2.51164       -0.81365        1.33950
O         -2.24617       -0.02420       -1.01217
O         -0.38255       -1.10577        0.12473
O         -2.39075       -2.43651       -0.48163
H         -2.29532       -2.44435       -1.44273
H          0.86685        1.73656        1.48956
H          1.00755        3.13330        0.39126
H         -1.54089        1.63720        1.19737
H         -1.15532        3.33498        1.46114
H         -2.21360        2.08328       -0.86983
H         -2.13654        3.70119       -0.53808
H          0.24322        0.35495       -0.35084
H          0.12287        1.70496       -1.34020
C          0.45265        2.21419        0.59840
C         -1.04370        2.50721        0.75450
N          0.64949        1.30617       -0.55472
N         -1.60975        2.83875       -0.55205
H          1.66772        1.16450       -0.78433
H          4.80662       -0.55507        0.17419
H          3.99154        0.75937        1.03793
H          3.21935       -1.51822        1.75225
H          1.90772       -0.51326        1.16098
H          2.92400       -2.88592       -0.08613
H          1.43670       -2.17595       -0.16634
H          4.06039        1.09434       -1.39418
H          3.15589       -0.26995       -1.56564
C          3.84118       -0.04642        0.31103
C          2.81224       -1.04516        0.84893
N          3.34771        0.52327       -0.95173
N          2.43812       -2.00372       -0.18757
