8
2a_01.log	Energy:  -70971.2231792
N         -1.53052        0.00004       -0.02945
H         -1.57593        0.01380        0.98394
H         -2.02066       -0.82669       -0.35277
H         -2.02889        0.81249       -0.37557
N          1.64960        0.00002        0.10161
H          2.07023        0.81873       -0.32347
H          0.65191        0.00029       -0.11387
H          2.06973       -0.81903       -0.32332
