20
2dma_02.log	Energy: -169602.5137863
N          1.30805        0.02147       -0.21379
C          2.11838        1.19098        0.06525
C          2.01968       -1.22319        0.00251
H          0.45847        0.04042        0.35022
H          2.94134        1.25354       -0.65671
H          1.51166        2.09483       -0.04379
H          2.56296        1.19383        1.07792
H          2.83441       -1.31717       -0.72535
H          2.46238       -1.31496        1.01191
H          1.33918       -2.06648       -0.14911
N         -1.65928        0.02545        0.56109
C         -1.87020       -1.21202       -0.17723
C         -1.90539        1.20984       -0.25005
H         -2.24742        0.04122        1.38657
H         -1.12943       -1.27214       -0.98189
H         -1.72010       -2.06735        0.48718
H         -2.87314       -1.28944       -0.63030
H         -1.15874        1.24886       -1.05043
H         -2.90641        1.22507       -0.71352
H         -1.79127        2.10769        0.36330
