20
2dma_05.log	Energy: -169600.8676965
N          1.62727       -0.03581       -0.56929
C          1.68982       -1.18857        0.31603
C          1.75462        1.21862        0.15529
H          2.35559       -0.10146       -1.27187
H          0.83434       -1.14829        0.99810
H          1.61743       -2.11085       -0.26796
H          2.61299       -1.23075        0.92155
H          0.91444        1.30615        0.85163
H          2.68963        1.30039        0.73807
H          1.70833        2.05841       -0.54433
N         -1.62710       -0.03602        0.56926
C         -1.68943       -1.18880       -0.31603
C         -1.75514        1.21836       -0.15527
H         -2.35519       -0.10196        1.27205
H         -0.83411       -1.14823       -0.99829
H         -1.61653       -2.11107        0.26792
H         -2.61272       -1.23137       -0.92134
H         -0.91562        1.30591       -0.85242
H         -2.69068        1.30006       -0.73723
H         -1.70832        2.05822        0.54424
