20
2dma_01.log	Energy: -169602.1727167
N         -1.55520       -0.37167        0.48323
C         -2.01752       -0.83917       -0.81564
C         -1.83113        1.03885        0.71179
H         -1.97433       -0.92892        1.21907
H         -1.45246       -0.32932       -1.60319
H         -1.82243       -1.90975       -0.91300
H         -3.09049       -0.65436       -0.99290
H         -1.24702        1.63879        0.00579
H         -2.89411        1.30535        0.58432
H         -1.51906        1.31669        1.72185
N          1.47122       -0.38185       -0.26861
C          1.55452        0.91492       -0.91128
C          2.47009       -0.55169        0.76909
H          0.53740       -0.50381        0.12448
H          2.51136        1.01040       -1.43815
H          0.75764        1.01177       -1.65558
H          1.47742        1.76707       -0.20854
H          3.47211       -0.55136        0.32390
H          2.44904        0.24075        1.54126
H          2.32707       -1.51608        1.26463
