20
2dma_03.log	Energy: -169601.8817192
N          1.54777       -0.32639       -0.33279
C          2.43391       -0.86042        0.68992
C          1.74574        1.09683       -0.57134
H          1.67790       -0.83544       -1.20050
H          2.19885       -0.38959        1.65023
H          2.27069       -1.93586        0.79691
H          3.50353       -0.68537        0.48281
H          1.51739        1.64679        0.34795
H          2.77556        1.35404       -0.87104
H          1.05186        1.43702       -1.34438
N         -1.54188        0.08161       -0.33435
C         -2.44815       -1.05011       -0.30884
C         -1.83283        1.05327        0.70191
H         -0.57761       -0.23811       -0.23819
H         -3.46386       -0.72033       -0.55793
H         -2.14389       -1.78419       -1.06041
H         -2.49672       -1.55957        0.67221
H         -2.81091        1.51421        0.51928
H         -1.85362        0.62340        1.72124
H         -1.08239        1.84910        0.68193
