20
2dma_04.log	Energy: -169602.4336615
N         -1.56608       -0.25199       -0.51534
C         -2.10468        1.03196       -0.09176
C         -1.46824       -1.21007        0.57592
H         -2.13175       -0.63498       -1.26436
H         -1.41382        1.48969        0.62445
H         -2.18560        1.70102       -0.95220
H         -3.09275        0.95669        0.39326
H         -0.74629       -0.83963        1.31237
H         -2.42461       -1.38496        1.09703
H         -1.09358       -2.16444        0.19664
N          1.52210        0.23176       -0.55732
C          1.62373        1.26193        0.45670
C          2.11612       -1.02213       -0.13783
H          0.54117        0.08511       -0.79485
H          2.67753        1.50420        0.63801
H          1.12795        2.17302        0.10904
H          1.17942        0.97574        1.43091
H          3.19787       -0.89724       -0.01008
H          1.71317       -1.41024        0.81819
H          1.95751       -1.78258       -0.90788
