24
2eda_07.log	Energy: -239068.3619620
H          1.11426        0.01498       -1.12992
H          0.57845        1.03184        0.19226
H          2.82784        1.71056       -0.45899
H          2.89471        0.99165        1.15636
H          3.68885       -0.37476       -1.31223
H          4.61997       -0.03449       -0.01309
H          1.75285       -1.61874        0.58449
H          0.95679       -0.73391        1.69531
C          1.29248        0.24479       -0.07113
C          2.71996        0.76620        0.09757
N          0.98913       -0.95717        0.70467
N          3.67713       -0.26598       -0.30299
H         -1.40569        0.51499        1.25748
H         -3.06525        1.08719        1.30914
H         -2.97905       -1.35200        1.01297
H         -3.70480       -0.59362       -0.41502
H         -0.88832       -1.43901       -0.25276
H         -2.07101       -2.12044       -1.18727
H         -1.52166        1.12580       -1.15571
H         -2.85178        1.99563       -0.80399
C         -2.30530        0.66109        0.64543
C         -2.76547       -0.71006        0.14101
N         -1.99443        1.62586       -0.40535
N         -1.75699       -1.25667       -0.76152
