24
2eda_09.log	Energy: -239069.0902501
H         -3.32545        0.15171        0.54426
H         -2.68344        1.56689       -0.30200
H         -2.59147       -0.41476       -1.72912
H         -0.97271        0.22064       -1.39664
H         -2.15083       -2.13356       -0.09372
H         -0.84350       -2.08705       -1.06481
H         -1.76873        1.46412        1.90507
H         -1.15092       -0.02751        1.61867
C         -2.40238        0.60936        0.14775
C         -1.83029       -0.28594       -0.94452
N         -1.39985        0.85534        1.18279
N         -1.36457       -1.55528       -0.37580
H          3.31074        0.11786        0.65452
H          2.98799       -1.40075       -0.17253
H          2.65528        0.48057       -1.71175
H          1.15884       -0.39961       -1.45589
H          0.44323        1.37131        0.03294
H          1.83546        2.20007       -0.27426
H          1.27132       -0.03168        1.76238
H          0.75706       -1.30132        0.88724
C          2.51066       -0.49050        0.21360
C          1.87969        0.26867       -0.96463
N          1.59085       -0.86694        1.28207
N          1.19085        1.51168       -0.64871
