24
2eda_02.log	Energy: -239071.0299114
H          3.35053        0.08546       -0.51414
H          2.77746        1.45898        0.45817
H          2.63464       -0.72467        1.63806
H          1.08094        0.11269        1.51782
H          1.25955       -2.38731        0.89601
H          0.41270       -1.44159       -0.14411
H          1.83413        1.63705       -1.69811
H          1.25098        0.11542       -1.64394
C          2.45960        0.55160       -0.06752
C          1.85061       -0.42129        0.93576
N          1.46135        0.93026       -1.07295
N          1.34038       -1.60696        0.25541
H         -3.35114       -0.08644       -0.51216
H         -2.77552       -1.46036        0.45811
H         -2.63321        0.72243        1.63977
H         -1.07893       -0.11357        1.51691
H         -1.26096        2.38693        0.89754
H         -0.41306        1.44268       -0.14295
H         -1.83523       -1.63445       -1.70041
H         -1.25220       -0.11286       -1.64379
C         -2.45919       -0.55218       -0.06714
C         -1.84977        0.42025        0.93631
N         -1.46189       -0.92888       -1.07422
N         -1.34102        1.60691        0.25644
