24
2eda_03.log	Energy: -239070.2097264
H         -3.04314        0.05743       -0.93854
H         -2.87058       -1.49723       -0.10914
H         -2.81132        0.15661        1.57092
H         -1.18128       -0.47211        1.42330
H         -0.57280        1.53336        0.23282
H         -2.10257        2.11279        0.39139
H         -0.46661       -1.35740       -0.73152
H         -1.44306       -1.35547       -2.06560
C         -2.33418       -0.57276       -0.38614
C         -1.93480        0.14156        0.91130
N         -1.17593       -0.82744       -1.24243
N         -1.41477        1.49423        0.80822
H          2.94654       -0.05797       -1.00359
H          2.98438        1.39111        0.00312
H          2.84023       -0.39000        1.51267
H          1.21368        0.31616        1.47105
H          2.02360       -2.11573        0.03431
H          1.03007       -2.03696        1.32194
H          1.44809        1.75589       -1.76322
H          0.51358        0.46551       -1.33337
C          2.33455        0.57660       -0.33569
C          1.94626       -0.24985        0.88597
N          1.17307        1.16525       -0.98734
N          1.33481       -1.52908        0.49739
