24
2eda_10.log	Energy: -239068.6967810
H         -2.91151       -1.13539       -0.57950
H         -2.99581       -1.00044        1.17848
H         -3.24450        1.18308        0.20206
H         -1.72430        1.10990        1.11199
H         -1.89076        0.82827       -1.80866
H         -1.34894        2.13806       -1.00728
H         -1.18912       -2.39394        0.72450
H         -0.52230       -1.36774       -0.35587
C         -2.36843       -0.77089        0.31085
C         -2.23509        0.74362        0.21562
N         -1.07157       -1.41253        0.49867
N         -1.43309        1.12808       -0.95175
H          1.74191       -1.55667        0.19678
H          3.18196       -1.08962       -0.69418
H          3.07967        0.03757        1.49307
H          2.98453        1.23686        0.20655
H          0.68656        1.44189        0.55585
H          0.61598        0.18930        1.57127
H          0.57780        0.18130       -1.22463
H          1.91996        0.15770       -2.16551
C          2.21620       -0.71832       -0.33079
C          2.43991        0.41190        0.68388
N          1.38996       -0.37927       -1.48773
N          1.21803        0.95544        1.27192
