24
2eda_05.log	Energy: -239068.9087035
H         -1.36197        0.75614        1.44720
H         -2.39990        2.01102        0.76413
H         -3.68248        0.03102        0.68851
H         -3.13486        0.30239       -0.97655
H         -2.02786       -1.65234        0.90159
H         -2.71956       -1.93602       -0.54552
H         -0.11849        2.02207       -0.16016
H         -0.41469        0.60753       -0.88047
C         -1.82772        1.11182        0.50744
C         -2.79981        0.03939        0.03162
N         -0.86928        1.44916       -0.53397
N         -2.14257       -1.27558       -0.03527
H          3.51511       -0.68689       -0.08474
H          3.13416        0.11477        1.44596
H          1.71139       -1.83993        1.16086
H          0.73433       -0.36199        1.11906
H          1.43618       -1.98485       -1.21075
H         -0.05717       -1.49634       -0.68246
H          3.27822        1.71457       -0.37449
H          2.02520        0.96720       -1.12580
C          2.74604       -0.09462        0.44283
C          1.48281       -0.94073        0.56659
N          2.43794        1.16917       -0.21896
N          0.92741       -1.23754       -0.75142
