24
2eda_08.log	Energy: -239067.7506975
H          1.88811       -1.70195       -0.14825
H          0.83375       -0.72486       -1.15904
H          3.14539       -0.11559       -1.62671
H          2.34939        1.24195       -0.81354
H          4.19199       -0.63944        0.47616
H          4.35762        0.97951        0.32311
H          1.43206       -0.13257        1.63769
H          0.35480        0.64739        0.68965
C          1.52629       -0.67745       -0.31109
C          2.71419        0.21851       -0.66856
N          0.77804       -0.26258        0.87028
N          3.67889        0.23524        0.43146
H         -1.80151        0.72042        1.42262
H         -3.20724        1.55295        0.77648
H         -3.51913       -0.90683        0.96803
H         -3.69862       -0.35740       -0.70920
H         -1.15122       -1.41953        0.31888
H         -2.22304       -2.27040       -0.61682
H         -1.19900        0.73986       -1.12070
H         -2.08444        2.11255       -1.09740
C         -2.39615        0.86726        0.51168
C         -2.97450       -0.48979        0.10508
N         -1.54859        1.47975       -0.51487
N         -1.89233       -1.34345       -0.37882
