24
2eda_04.log	Energy: -239069.4457343
H         -3.51050        0.81534       -0.25371
H         -3.43014       -0.20682        1.18810
H         -1.88780        1.65578        1.42260
H         -0.99192        0.13149        1.31886
H         -1.26030        2.07325       -0.85690
H          0.12475        1.53007       -0.15177
H         -3.35165       -1.56017       -0.80372
H         -1.98256       -0.79892       -1.28858
C         -2.86996        0.10513        0.29974
C         -1.60737        0.83315        0.74635
N         -2.52076       -1.08151       -0.47483
N         -0.82793        1.27077       -0.41056
H          3.57421       -0.60565       -0.38268
H          3.39927        0.29704        1.13704
H          2.18230       -1.86604        1.12776
H          1.14305       -0.46835        1.44555
H          0.32710       -2.15406       -0.23348
H          0.32946       -0.63122       -0.76805
H          3.04356        1.84981       -0.53959
H          2.05040        0.87743       -1.38720
C          2.86572       -0.04310        0.24296
C          1.73844       -0.97653        0.66735
N          2.32766        1.13781       -0.44431
N          0.94672       -1.39148       -0.48639
