14
2ma_01.log	Energy: -120283.5384889
N          1.63977       -0.62128        0.32676
H          2.23334       -0.69037        1.14579
C          1.69447        0.72078       -0.25438
H          2.68713        1.02302       -0.61714
H          0.98730        0.77136       -1.08705
H          1.36963        1.44723        0.49559
H          1.96636       -1.31281       -0.33965
N         -1.38828       -0.62708       -0.41084
H         -1.97914       -1.44942       -0.36386
C         -2.02089        0.50098        0.26220
H         -2.23213        0.34551        1.33223
H         -1.37213        1.37868        0.17737
H         -2.96389        0.74777       -0.23544
H         -0.49838       -0.85299        0.03374
