14
2ma_03.log	Energy: -120283.1960645
N         -1.46240        0.74173        0.17753
H         -2.01439        1.32679        0.79476
C         -2.17940       -0.48690       -0.16603
H         -3.13325       -0.32926       -0.68917
H         -1.53427       -1.10674       -0.79447
H         -2.38180       -1.04878        0.74998
H         -1.26622        1.28631       -0.65551
N          1.32137       -0.65206        0.08733
H          0.47353       -0.18206        0.40539
C          2.38473        0.32061       -0.13375
H          2.68930        0.88906        0.75978
H          3.27209       -0.18159       -0.53184
H          2.05781        1.04192       -0.88912
H          1.59247       -1.32563        0.79483
