14
2ma_02.log	Energy: -120283.1653398
N          1.61240        0.76718       -0.04787
H          0.60588        0.92844       -0.09404
C          1.88883       -0.65452        0.10707
H          1.50997       -1.29801       -0.70473
H          2.96815       -0.81835        0.18771
H          1.44252       -1.00631        1.04297
H          2.02825        1.12429       -0.90059
N         -1.53786        0.70128        0.12997
H         -1.70341        0.93175        1.10364
C         -1.82428       -0.70817       -0.13244
H         -2.86086       -1.01174        0.07276
H         -1.60437       -0.92888       -1.18053
H         -1.15987       -1.32777        0.47578
H         -2.13535        1.30347       -0.42540
