33
2sa1ma1eda_117.log	Energy: -1058419.5049661
S          0.98455       -1.38247        0.07548
O          2.13995       -2.18853        0.52809
O          0.29903       -0.64579        1.15725
O          1.41592       -0.43087       -1.00681
O         -0.02746       -2.39854       -0.54956
H          3.36138       -0.49084       -1.26353
H         -0.88779       -1.89358       -0.77376
S         -2.88007       -0.25017        0.00795
O         -4.29258       -0.50382       -0.13596
O         -1.99867       -0.85876       -1.04413
O         -2.49934        1.19035        0.15347
O         -2.45411       -0.95930        1.38783
H         -1.23408        1.47453       -0.67583
H         -1.48405       -0.86542        1.49760
N          4.05122       -0.71140       -0.52977
H          3.49431       -1.41773        0.03529
C          4.35452        0.50846        0.26344
H          4.88098        0.21926        1.17233
H          4.97341        1.18064       -0.33109
H          3.40841        1.00142        0.50849
H          4.88002       -1.14802       -0.92643
H          1.17629        3.14578       -1.35403
H         -0.48111        3.78612       -1.20437
H          0.70580        4.13953        0.86512
H         -0.61348        2.98982        1.12265
H          1.64972        2.46650        2.09817
H          0.96692        1.25155        1.26679
H         -0.62734        1.67647       -2.22942
H          0.32720        0.91993       -1.11702
C          0.21154        3.01580       -0.85662
C          0.37278        3.11855        0.65460
N         -0.35098        1.69975       -1.24987
N          1.37645        2.18185        1.16312
