34
2sa1ma1tma_38.log	Energy: -1048339.0178688
S          2.48812       -0.48218        0.71014
O          3.83552       -0.75417        1.15772
O          1.36718       -0.80724        1.58360
O          2.33569        1.02471        0.32435
O          2.32595       -1.24131       -0.66618
H          3.13177        1.28444       -0.31549
H          1.36685       -1.22683       -0.97594
S         -1.34877       -0.90348       -0.64695
O         -2.60444       -1.49421       -1.10242
O         -0.15182       -1.24472       -1.43479
O         -1.47011        0.57682       -0.44381
O         -1.14315       -1.52063        0.82334
H         -2.90673        0.86935       -0.04767
H         -0.25181       -1.26626        1.16304
N          4.37644        1.48577       -1.19744
H          4.50306        0.59409       -1.67065
C          5.53768        1.78424       -0.34328
H          6.47939        1.82562       -0.90073
H          5.37566        2.74425        0.15106
H          5.60405        1.01127        0.42438
H          4.25592        2.19087       -1.91813
N         -3.93643        1.03235        0.24244
C         -4.25968       -0.01418        1.24494
H         -4.13886       -0.98809        0.77054
H         -3.55436        0.06645        2.07239
H         -5.28369        0.12785        1.59941
C         -4.01785        2.39312        0.81465
H         -3.35263        2.45212        1.67671
H         -3.69570        3.11382        0.06244
H         -5.04619        2.60367        1.11869
C         -4.75162        0.88375       -0.98679
H         -4.44197        1.64361       -1.70511
H         -4.55479       -0.10531       -1.40176
H         -5.80940        1.00736       -0.74090
