39
2sa1eda1tma_125.log	Energy: -1107725.1316179
S          3.49408       -0.39433       -0.36549
O          4.92040       -0.41523       -0.54788
O          2.91390        0.09163        0.87768
O          2.85750        0.59746       -1.47844
O          2.92149       -1.78086       -0.74252
H          3.27358        0.41292       -2.33286
H          1.97185       -1.96648       -0.34751
S         -0.25969       -1.19285        0.60182
O         -1.56403       -1.62484        1.06370
O          0.69547       -2.28167        0.27486
O         -0.28812       -0.17554       -0.48662
O          0.38226       -0.41255        1.87350
H         -0.47523        1.37340       -0.03190
H          1.33847       -0.29322        1.69193
H         -5.30182        0.71562       -0.29583
H         -4.66000        0.81728       -1.94208
H         -5.79432       -1.33938       -1.53259
H         -4.08251       -1.56837       -1.91719
H         -5.06236       -2.80160        0.08957
H         -3.68112       -1.98869        0.39962
H         -3.12757        0.18656        0.47218
H         -2.50004        0.21882       -1.00285
C         -4.54244        0.31389       -0.97480
C         -4.77884       -1.18725       -1.14901
N         -3.22430        0.64975       -0.42992
N         -4.65597       -1.87479        0.13224
N         -0.45788        2.39487        0.23478
C          0.97310        2.75379        0.39356
H          1.39553        2.17399        1.21302
H          1.50442        2.49681       -0.52289
H          1.05329        3.82300        0.60182
C         -1.10606        3.14286       -0.87086
H         -0.54009        2.97001       -1.78711
H         -2.12191        2.75576       -0.97628
H         -1.10929        4.20820       -0.62855
C         -1.21301        2.53372        1.50655
H         -2.25564        2.28623        1.30632
H         -0.79551        1.83392        2.23142
H         -1.12037        3.56198        1.86385
