28
2sa1a1dma_72.log	Energy: -998998.9067668
S         -1.70971       -0.44744        0.16754
O         -2.42779        0.78999        0.40639
O         -0.68347       -0.85825        1.12299
O         -2.72847       -1.61121        0.03979
O         -1.07228       -0.40910       -1.27529
H         -3.70762       -1.23714       -0.07648
H         -0.08454       -0.43071       -1.22525
S          2.56628       -0.59666       -0.13328
O          3.48247        0.51059       -0.26659
O          1.58148       -0.88781       -1.15780
O          3.43975       -1.93672       -0.02085
O          1.88647       -0.53315        1.27406
H          4.30431       -1.71414        0.35348
H          0.88689       -0.61151        1.20525
N          0.69101        2.05132       -0.08203
C          0.36681        2.57533        1.23863
C         -0.02867        2.73727       -1.14685
H          1.68924        2.15133       -0.24003
H         -0.68965        2.38413        1.44897
H          0.96501        2.05723        1.99305
H          0.54602        3.66017        1.33412
H         -1.10132        2.56188       -1.02308
H          0.14292        3.82750       -1.15719
H          0.27204        2.32837       -2.11552
N         -5.07361       -0.56201       -0.19567
H         -5.48773       -0.61097       -1.12121
H         -4.85728        0.41144        0.00914
H         -5.75925       -0.88734        0.47845
