30
2sa1a1eda_74.log	Energy: -1033764.7118259
S         -1.64292        1.69472        0.23169
O         -1.88134        3.09680        0.50610
O         -0.84905        0.97348        1.24742
O         -3.11580        0.94694        0.22042
O         -1.17875        1.36561       -1.14595
H         -3.61962        1.25855        0.98441
H          0.63058        0.90069       -1.01547
S          0.30429       -2.36585        0.28072
O          0.29173       -3.77779        0.57936
O          1.45121       -1.57511        0.78941
O          0.08727       -2.02982       -1.17095
O         -1.01095       -1.75454        1.01408
H         -1.32670       -1.63087       -1.54548
H         -0.87581       -0.79461        1.19992
H          1.95061        2.69325       -0.21101
H          1.53307        1.64771        1.16353
H          3.99560        2.18604        1.15246
H          3.69780        0.45680        0.94629
H          4.53416        2.30955       -1.15494
H          5.10816        0.81851       -0.80101
H          2.23660        0.60585       -1.48015
H          1.55421       -0.24588       -0.19432
C          2.11076        1.71021        0.24059
C          3.59254        1.43327        0.46352
N          1.58728        0.68258       -0.69155
N          4.26943        1.38466       -0.83382
N         -2.27378       -1.13128       -1.70616
H         -2.83798       -1.24650       -0.86377
H         -2.76876       -1.47493       -2.52313
H         -2.04866       -0.12307       -1.77886
