36
2sa1dma1eda_84.log	Energy: -1083090.7614385
S         -1.62604       -1.66913       -0.35671
O         -2.55872       -2.76846       -0.30432
O         -2.23508       -0.32295       -0.63818
O         -0.71005       -1.54466        0.80973
O         -0.67913       -1.96532       -1.63680
H          1.09229       -1.59474        0.60730
H         -0.18912       -1.14330       -1.87479
S          0.70658        1.53212       -1.26598
O          1.00204        0.16821       -1.81950
O          1.43288        2.61538       -1.88160
O         -0.84608        1.78710       -1.59973
O          0.79608        1.48541        0.22654
H         -1.37688        0.97723       -1.38735
H         -0.62387        1.36198        1.12066
N         -1.59360        1.28301        1.50776
C         -2.25568        2.60048        1.40213
C         -1.55277        0.70347        2.86666
H         -2.03768        0.61454        0.84388
H         -1.74919        3.30960        2.05834
H         -2.18018        2.93889        0.36835
H         -3.30264        2.50342        1.69269
H         -0.99013        1.37024        3.52219
H         -2.57120        0.58878        3.24111
H         -1.06833       -0.27028        2.79757
H          3.61990        0.34450        0.39666
H          4.48527       -0.49178        1.68474
H          3.94415       -2.01091       -0.21862
H          3.20657       -2.54852        1.31518
H          1.75114       -0.95962       -0.76113
H          1.64045       -2.60345       -0.55998
H          2.85868        0.34063        2.99050
H          1.84501        0.62502        1.72419
C          3.51363       -0.40942        1.18895
C          3.21354       -1.76415        0.55568
N          2.47113       -0.05655        2.14502
N          1.86950       -1.73790       -0.07107
