33
2sa1ma1eda_09.log	Energy: -1058429.2428275
S         -0.05339        2.24759       -0.31362
O          0.13037        1.21345       -1.35026
O         -1.46916        2.43282        0.06645
O          0.87427        2.12385        0.81976
O          0.40237        3.64785       -0.98907
H         -0.19618        3.83780       -1.72456
S         -1.02988       -2.15919       -0.42564
O         -2.42389       -1.79700       -0.77322
O         -0.63690       -1.44318        0.84457
O         -0.69738       -3.56608       -0.44887
O         -0.08036       -1.49708       -1.55098
H         -0.17577       -0.51806       -1.53566
N         -2.86500        0.23200        0.94048
H         -2.91884       -0.46057        0.15426
H         -2.18063       -0.21548        1.55929
C         -4.16435        0.49806        1.58420
H         -4.02926        1.20919        2.39908
H         -4.84527        0.91891        0.84496
H         -4.57643       -0.43521        1.96770
H         -2.40598        1.09690        0.58073
H          2.62699       -1.77024       -0.47667
H          2.24364       -0.15150       -1.08023
H          4.73294       -0.47827       -0.84925
H          4.13540        0.81921        0.19039
H          4.86930       -1.87015        1.08979
H          5.36683       -0.42467        1.67219
H          0.94666       -0.96524        0.94213
H          2.42732       -0.73142        1.77343
C          2.68555       -0.70302       -0.25047
C          4.11679       -0.26421        0.03327
N          1.86605       -0.45275        0.96159
N          4.58044       -0.91252        1.26104
H          1.61872        0.55527        1.02966
