26
2sa1eda_54.log	Energy: -998253.2016473
S          0.62199       -0.81878       -0.25638
O          0.90013        0.28575       -1.22195
O         -0.61415       -1.54854       -0.60704
O          1.79463       -1.65030       -0.00589
O          0.34760       -0.10352        1.15970
H         -0.52139        0.35651        1.12204
S         -3.26160        0.46295        0.08983
O         -2.11813        1.04661        0.76854
O         -4.37440        1.28017       -0.31377
O         -2.80211       -0.36633       -1.14833
O         -3.78106       -0.66081        1.12131
H         -1.91276       -0.84059       -0.97223
H         -4.62501       -1.01360        0.80427
H          4.87910        1.92315       -0.32470
H          3.17757        2.44727       -0.17885
H          4.18264        1.33429        1.93349
H          2.67015        0.63199        1.36195
H          5.16512       -0.68200        1.52519
H          3.70519       -1.28887        1.02296
H          3.81378        1.02993       -2.20384
H          3.93953       -0.21690       -1.08012
C          3.85011        1.58777       -0.17311
C          3.72782        0.76441        1.11810
N          3.49081        0.68898       -1.30218
N          4.37264       -0.53090        0.91658
H          2.42799        0.52829       -1.33658
