33
2sa1ma1eda_202.log	Energy: -1058404.8949957
S         -0.46974        1.76406        0.22110
O          0.85542        2.35281        0.51744
O         -1.59393        2.68488        0.24175
O         -0.40442        1.25099       -1.30949
O         -0.71328        0.53575        1.03811
H          0.38978        0.68420       -1.41345
H         -2.32286        0.32413        1.11231
S          2.96409       -0.26092       -0.28119
O          4.27831       -0.68698       -0.67996
O          1.83946       -0.36425       -1.19798
O          2.49331       -1.14989        0.98151
O          3.06942        1.17389        0.30199
H          3.23934       -1.24704        1.59089
H          2.14983        1.63210        0.41289
N         -0.45807       -2.36492       -0.02456
H          0.20459       -2.39286       -0.79365
C         -0.11737       -3.39409        0.95843
H          0.88998       -3.28465        1.38110
H         -0.83769       -3.36058        1.78179
H         -0.19343       -4.38281        0.49673
H         -0.33915       -1.44159        0.39110
H         -4.92361        0.34909       -0.35288
H         -3.48700        1.37333       -0.67317
H         -3.72898       -0.73920       -2.18843
H         -2.17760       -0.53188       -1.37744
H         -4.02871       -2.64648       -0.94239
H         -2.44917       -2.45074       -0.41873
H         -3.85433        0.70869        1.72449
H         -3.51744       -0.87059        1.18086
C         -3.83107        0.38681       -0.35975
C         -3.23781       -0.74408       -1.21081
N         -3.36605        0.14401        1.03460
N         -3.37588       -2.01379       -0.49927
