27
2sa1tma_14.log	Energy: -988181.2323008
S         -0.58492       -0.89411        0.09165
O          0.58051       -1.34606        0.88226
O         -1.68038       -1.85027       -0.02111
O         -1.05311        0.45438        0.54193
O         -0.07337       -0.69940       -1.41707
H          0.76770       -0.18971       -1.40422
S          3.26310        0.52419       -0.02781
O          4.25122        1.53569        0.23777
O          2.26210        0.71597       -1.06212
O          4.00889       -0.83484       -0.46834
O          2.58906        0.14508        1.32586
H          4.78539       -0.96453        0.09502
H          1.76248       -0.44331        1.18141
N         -3.60762        0.62794        0.03590
C         -4.29216       -0.28916        0.97963
H         -3.87267       -1.28596        0.84126
H         -4.09578        0.04698        1.99821
H         -5.36658       -0.28017        0.78045
C         -3.99260        2.04151        0.24048
H         -3.77957        2.31857        1.27330
H         -3.40174        2.66767       -0.42862
H         -5.05747        2.16768        0.03102
C         -3.78451        0.19537       -1.37324
H         -3.19227        0.84812       -2.01532
H         -3.41445       -0.82626       -1.46331
H         -4.84209        0.25657       -1.64088
H         -2.55428        0.55680        0.24415
