30
2sa1a1eda_06.log	Energy: -1033769.5321528
S          2.37622       -0.75432        0.11664
O          1.91561       -1.72214       -0.89848
O          2.95609        0.46870       -0.48234
O          1.40890       -0.50762        1.19087
O          3.60159       -1.46827        0.89889
H          4.30177       -1.65357        0.25822
S         -1.31017        1.73014        0.25173
O         -0.77455        0.99280       -0.94500
O         -0.53834        2.98525        0.42665
O         -2.75330        1.84539        0.29561
O         -0.94960        0.77849        1.50179
H         -0.01136        0.48523        1.44277
H         -1.32676       -3.28607        0.42069
H         -0.93731       -1.74575        1.22268
H         -3.41409       -2.22506        1.29018
H         -3.03934       -0.73872        0.42225
H         -3.93093       -3.24942       -0.75770
H         -4.31477       -1.71027       -1.15766
H          0.14176       -1.95522       -0.96285
H         -1.42587       -2.06234       -1.64891
C         -1.46770       -2.20204        0.38761
C         -2.94584       -1.82825        0.38156
N         -0.86057       -1.70650       -0.87286
N         -3.55723       -2.31261       -0.85969
H         -0.89374       -0.65389       -0.91228
N          1.48837        2.60088       -1.26653
H          0.80714        2.89127       -0.50887
H          2.08240        1.80402       -0.92521
H          0.89880        2.23939       -2.01652
H          2.06157        3.37586       -1.58602
