31
2sa1ma1dma_37.log	Energy: -1023687.6014951
S          2.41587       -1.03549        0.29422
O          1.15925       -0.83556        1.09709
O          3.39232       -1.91821        0.88465
O          1.93651       -1.77320       -1.05774
O          2.91908        0.30395       -0.12437
H          1.25019       -1.22544       -1.49073
H          1.74371        1.35401        0.01301
S         -1.39913       -0.22918       -0.82237
O         -0.24689       -0.07982       -1.71694
O         -2.68093       -0.58881       -1.46288
O         -1.12054       -1.42849        0.17557
O         -1.57485        0.99086        0.04932
H         -0.19508       -1.29616        0.59721
H         -3.29977        0.83932        0.71640
N         -4.12319        0.21073        0.61272
H         -4.98847        0.74494        0.59393
C         -4.11173       -0.85199        1.65159
H         -4.92317       -1.55186        1.45606
H         -3.15255       -1.36615        1.58013
H         -4.22860       -0.39969        2.63575
H         -3.90592       -0.19844       -0.33322
N          1.02167        2.11855        0.17634
C          1.00872        3.01410       -0.99623
C          1.34715        2.76829        1.45954
H          0.09727        1.65636        0.24490
H          2.00337        3.44161       -1.13136
H          0.73654        2.41896       -1.86824
H          0.27574        3.80882       -0.84430
H          2.33598        3.22332        1.38772
H          0.60034        3.53100        1.68901
H          1.35676        2.00092        2.23370
