24
2sa1dma_03.log	Energy: -963527.9953087
S          1.74196       -0.93454        0.00813
O          0.89846       -1.97803       -0.60139
O          2.36713       -0.00915       -0.93206
O          1.05395       -0.21607        1.12399
O          2.91312       -1.71750        0.79673
H          3.35228       -2.31735        0.17733
S         -2.15611       -0.44877       -0.12784
O         -1.45714        0.53764       -0.95975
O         -3.58359       -0.40022       -0.02872
O         -1.73671       -1.88366       -0.60399
O         -1.56841       -0.33620        1.34178
H         -0.74153       -1.95418       -0.69227
H         -0.56900       -0.38450        1.33222
N          0.46567        2.25054       -0.01824
C         -0.30551        3.06803        0.94572
C          1.34676        3.01465       -0.92947
H          1.00492        1.53106        0.49461
H         -0.94692        3.75559        0.39366
H         -0.91868        2.40101        1.55253
H          0.38451        3.62548        1.57998
H          0.73281        3.67054       -1.54783
H          2.04423        3.60645       -0.33540
H          1.89317        2.30116       -1.54496
H         -0.21100        1.67351       -0.55715
