30
2sa1a1eda_166.log	Energy: -1033751.4300107
S         -2.12756        0.24746        0.42545
O         -2.76014       -0.94113        0.98155
O         -0.85488       -0.07879       -0.33437
O         -3.09319        0.87962       -0.65405
O         -1.84003        1.34762        1.37086
H         -3.70845        0.15076       -1.02028
H         -0.27013        1.75145        1.30663
S          1.97171       -1.71078        0.17429
O          2.72633       -2.88091        0.53853
O          2.13622       -0.47519        0.93417
O          2.41104       -1.26394       -1.32337
O          0.48764       -2.07707        0.02828
H          2.54678       -2.05906       -1.85819
H         -0.15710       -1.21944       -0.10812
H          0.21607        2.18220       -0.93717
H          0.22643        3.69199       -0.00526
H          2.12659        3.73254       -1.51738
H          2.74213        3.59425        0.11542
H          3.21901        1.28312       -0.28552
H          2.54199        1.34024       -1.76843
H          1.20283        1.04288        0.92781
H          1.19188        2.44233        1.82841
C          0.77155        2.76422       -0.19814
C          2.20074        3.04635       -0.66676
N          0.73703        1.96026        1.05475
N          2.99751        1.90182       -1.05754
N         -4.65320       -1.15739       -1.34000
H         -5.65375       -0.99032       -1.33533
H         -4.41348       -1.70731       -0.51668
H         -4.42435       -1.70047       -2.16561
