28
2sa1a1dma_77.log	Energy: -998996.8623723
S         -2.56016        0.03702       -0.05437
O         -3.93103        0.35800       -0.33197
O         -1.52543        0.18947       -1.06300
O         -2.03472        0.95286        1.15877
O         -2.51592       -1.41022        0.53961
H         -2.76926        1.14859        1.75876
H         -1.57095       -1.74322        0.59974
S          1.16548       -1.63679        0.01071
O         -0.03259       -2.21438        0.61521
O          2.35222       -2.44564       -0.11242
O          0.80788       -1.15448       -1.45899
O          1.46461       -0.31829        0.78055
H         -0.03585       -0.64437       -1.43836
H          2.46960       -0.01488        0.60112
N          0.48326        2.79507       -0.07830
C          1.47988        3.16605        0.90377
C          1.04956        2.45995       -1.36851
H         -0.07574        2.02296        0.26546
H          1.96816        4.09890        0.59873
H          1.00179        3.33983        1.87122
H          2.27067        2.40467        1.04811
H          1.53216        3.34474       -1.79923
H          1.80166        1.64879       -1.32710
H          0.25536        2.14600       -2.04985
N          3.91882        0.27440        0.31220
H          4.03983        0.96342       -0.42435
H          4.31762       -0.60731       -0.00318
H          4.43846        0.58743        1.12661
