39
2sa1eda1tma_73.log	Energy: -1107743.5302959
S          1.94904        1.78363       -0.38428
O          0.87822        2.52913       -1.06525
O          1.44123        0.93472        0.72685
O          2.88135        1.08514       -1.27064
O          2.82054        2.89304        0.43458
H          3.17465        3.52475       -0.20614
S         -1.91762       -1.92181       -0.15221
O         -2.62001       -3.00309        0.52074
O         -2.78641       -0.80786       -0.61002
O         -0.69512       -1.41753        0.50172
O         -1.28848       -2.57573       -1.52879
H         -1.97783       -3.11063       -1.94387
H         -2.42797        1.66050        1.94794
H         -1.40717        3.03375        1.46463
H         -3.72277        3.64794        1.05965
H         -2.94741        3.43702       -0.49856
H         -4.05725        1.29415       -0.69255
H         -4.74402        1.48472        0.77456
H         -0.59189        0.86424        0.67567
H         -1.94939        0.64443       -0.23434
C         -2.09787        2.26822        1.10113
C         -3.29951        2.89455        0.38710
N         -1.34001        1.37925        0.19019
N         -4.35762        1.98828       -0.01621
H         -0.83451        1.91223       -0.53399
N          2.34065       -1.66182        0.47226
C          3.77000       -1.31069        0.67467
H          4.04831       -0.56413       -0.06906
H          3.88994       -0.89312        1.67476
H          4.37258       -2.21512        0.56750
C          1.86631       -2.64153        1.48327
H          2.04777       -2.22997        2.47681
H          0.79777       -2.79056        1.33578
H          2.42189       -3.57313        1.35581
C          2.08746       -2.12654       -0.91918
H          1.02193       -2.32277       -1.03224
H          2.39803       -1.33239       -1.59896
H          2.66905       -3.03473       -1.09366
H          1.80548       -0.77297        0.59496
