31
2sa1a1tma_32.log	Energy: -1023675.8898215
S         -0.38540       -0.89711        0.53276
O          0.67446       -0.47692        1.48203
O         -1.47248       -1.66943        1.12044
O         -0.87419        0.27079       -0.26397
O          0.30086       -1.89100       -0.51670
H          1.12140       -1.47095       -0.85874
S          3.39779        0.35745       -0.38317
O          4.27535        1.35006       -0.94501
O          2.54657       -0.45269       -1.23543
O          4.28180       -0.72767        0.41606
O          2.55938        1.03963        0.74021
H          4.98973       -0.26815        0.88996
H          1.78318        0.44064        1.05090
N         -2.05768        2.81175        0.85576
H         -1.78571        3.69819        0.44186
H         -1.35658        2.12339        0.57964
H         -1.97520        2.92765        1.86135
N         -3.53519        0.09756       -0.49931
C         -4.01011        1.21723       -1.34671
H         -3.77207        2.14795       -0.82896
H         -3.48914        1.17711       -2.30413
H         -5.08681        1.11678       -1.50256
C         -3.72011       -1.22479       -1.14722
H         -3.19027       -1.22404       -2.10035
H         -3.29151       -1.98539       -0.49425
H         -4.78629       -1.39984       -1.30761
C         -4.14108        0.13716        0.85620
H         -3.66962       -0.64014        1.45796
H         -3.93770        1.12002        1.28234
H         -5.21677       -0.03305        0.76762
H         -2.49110        0.21953       -0.37816
