33
2sa1ma1eda_166.log	Energy: -1058411.1465714
S          0.81220        1.83727       -0.19466
O          1.31918        1.13448       -1.37287
O         -0.62924        2.20748       -0.33007
O          1.11464        1.20123        1.09349
O          1.59916        3.25127       -0.08557
H          1.41933        3.76459       -0.88532
S         -2.76035       -0.01909        0.17085
O         -1.61876       -0.88886        0.42457
O         -4.08857       -0.55282        0.24993
O         -2.67269        1.23208        1.14400
O         -2.57945        0.63691       -1.26629
H         -1.84292        1.72814        0.94104
H         -1.77232        1.21045       -1.24314
N          3.66243       -0.57132        1.13047
H          3.20902        0.26736        1.49175
C          4.30097       -0.25906       -0.15687
H          5.09908        0.48871       -0.07758
H          4.72392       -1.17214       -0.58509
H          3.54027        0.12788       -0.84017
H          4.35437       -0.86173        1.81367
H          0.05044       -1.44792       -1.15589
H          1.79083       -1.66927       -1.36543
H          0.38160       -3.74339       -1.88283
H          1.62924       -4.02921       -0.66163
H         -1.18291       -3.46828        0.00312
H         -0.36007       -4.87167        0.26631
H          0.70149       -0.67965        0.83747
H          0.63296       -2.31114        1.20076
C          0.92271       -1.98642       -0.78792
C          0.69305       -3.49502       -0.85957
N          1.11730       -1.59928        0.63535
N         -0.26449       -3.86797        0.17738
H          2.13476       -1.48466        0.89024
