36
2sa1dma1eda_130.log	Energy: -1083078.3491882
S          0.06111        1.93227        0.39987
O         -0.26721        1.41130       -0.96356
O         -0.96906        1.55151        1.38508
O          1.44143        1.66214        0.78048
O         -0.00431        3.54048        0.28895
H         -0.93122        3.81734        0.29154
S         -2.74874       -0.90931       -0.35642
O         -1.45826       -1.58464       -0.25997
O         -3.93450       -1.65360       -0.66239
O         -3.00705       -0.13340        0.99631
O         -2.61471        0.25098       -1.43021
H         -2.24218        0.46685        1.20563
H         -1.75409        0.73769       -1.30462
N          1.81288       -1.24160        1.51325
C          2.97641       -2.09742        1.73773
C          0.64933       -1.60926        2.32388
H          2.05398       -0.27187        1.70641
H          2.73034       -3.12472        1.44864
H          3.79888       -1.74063        1.11305
H          3.29175       -2.10881        2.79054
H          0.25472       -2.57073        1.98347
H          0.89640       -1.68687        3.39153
H         -0.13130       -0.85798        2.19394
H          2.81455       -2.14515       -1.74113
H          1.81732       -1.46172       -3.04973
H          3.92900       -0.23193       -2.79851
H          2.54144        0.81108       -2.48645
H          4.57286        0.73411       -0.85816
H          3.07060        0.83186       -0.22824
H          0.37409       -1.78558       -1.20237
H          1.44462       -1.15994       -0.04017
C          2.23648       -1.27336       -2.05739
C          3.12300       -0.03353       -2.08582
N          1.12230       -1.09808       -1.09779
N          3.69450        0.23740       -0.77102
H          0.66065       -0.18126       -1.20947
