36
2sa1dma1eda_91.log	Energy: -1083087.1863915
S         -0.38789       -2.10829       -0.65349
O         -0.39895       -3.53604       -0.87071
O         -1.72357       -1.43829       -0.65876
O          0.36477       -1.66990        0.57187
O          0.43415       -1.48097       -1.88136
H          1.84016       -1.18250        0.21520
H          0.31005       -0.48553       -1.90565
S         -0.62470        1.90796       -0.91865
O         -0.78113        3.30700       -1.24168
O          0.25704        1.13104       -1.83565
O         -0.25697        1.63646        0.50501
O         -2.09807        1.24996       -1.10879
H         -1.23229        0.63319        1.36134
H         -2.00448        0.27180       -1.16191
N         -1.94866       -0.04399        1.73792
C         -3.24175        0.65841        1.88190
C         -1.45404       -0.68998        2.96959
H         -2.00688       -0.74207        0.97064
H         -3.14627        1.42477        2.65256
H         -3.48114        1.12637        0.92703
H         -4.01480       -0.05868        2.16243
H         -1.28595        0.07395        3.73068
H         -2.19584       -1.40731        3.32522
H         -0.52626       -1.20671        2.72605
H          3.95998        0.66143       -0.85003
H          2.18744        0.85962       -1.00147
H          3.11718        2.28419        0.84872
H          1.95782        1.09489        1.42097
H          4.86761        0.97922        1.76683
H          3.69330        0.68797        2.86181
H          2.98442       -1.49794       -0.95227
H          3.48248       -1.20663        0.63282
C          2.99609        0.51690       -0.35321
C          2.96068        1.21038        1.00085
N          2.82635       -0.94361       -0.11203
N          3.94388        0.57716        1.88682
