26
2sa1eda_50.log	Energy: -998255.3107192
S          2.05434        0.88809       -0.09720
O          1.47167        1.35837       -1.34445
O          1.41797        1.45612        1.11599
O          2.17889       -0.59571        0.01400
O          3.57562        1.42897       -0.12423
H          4.06710        1.01588        0.59914
S         -0.54538       -2.10508        0.05559
O         -1.11718       -0.76559       -0.03289
O         -1.42024       -3.23868        0.11646
O          0.44863       -2.31328       -1.16208
O          0.41710       -2.15350        1.31637
H          1.17269       -1.64495       -1.09326
H          1.14375       -1.49834        1.16941
H         -2.05059        0.92027        1.45203
H         -2.19119        2.67240        1.72070
H         -4.30528        1.58278        0.81978
H         -3.71425        2.91451       -0.17909
H         -3.18826        0.08451       -0.80018
H         -4.09555        1.14997       -1.67459
H         -0.11818        1.91219        0.56932
H         -1.08084        1.37009       -0.68390
C         -2.19938        1.88502        0.96529
C         -3.49058        1.89278        0.14944
N         -1.02840        2.06724        0.07081
N         -3.31678        1.06528       -1.03403
H         -1.00645        2.98430       -0.37287
