31
2sa1ma1dma_88.log	Energy: -1023663.6539014
S         -3.18832       -0.30850        0.12190
O         -3.94239        0.84066        0.56737
O         -2.29349       -1.02047        1.01402
O         -4.25990       -1.41734       -0.34213
O         -2.48137        0.00816       -1.23301
H         -5.07089       -0.96217       -0.60838
H         -1.47790       -0.12699       -1.18599
S          1.10148       -0.50377       -0.25323
O          1.71039        0.82194        0.04751
O          0.04245       -0.44388       -1.27428
O          2.15261       -1.50297       -0.54761
O          0.43805       -1.01911        1.10203
H          3.70826       -0.82798       -0.27668
H         -0.53391       -0.85290        1.10424
N         -1.02136        1.87992        0.78939
H         -1.67471        2.16130        1.51217
C         -1.08959        2.78150       -0.35744
H         -0.86521        3.83393       -0.12685
H         -0.37867        2.43724       -1.11333
H         -2.09119        2.73131       -0.79248
H         -0.08478        1.88004        1.17939
N          4.25151        0.00889        0.04751
C          5.21340        0.45869       -0.97583
C          4.82201       -0.25035        1.38452
H          3.44129        0.66792        0.12514
H          5.98052       -0.30492       -1.11305
H          4.67788        0.61453       -1.91227
H          5.67568        1.39323       -0.65447
H          5.57966       -1.03172        1.31037
H          5.26936        0.66543        1.77371
H          4.01717       -0.57851        2.04275
