28
2sa1a1dma_09.log	Energy: -999034.6798705
S         -2.13591       -0.37326       -0.24128
O         -2.00450       -1.84068       -0.34319
O         -2.03326        0.16445        1.11191
O         -1.26406        0.33149       -1.22334
O         -3.65411       -0.02623       -0.68784
H         -3.81480       -0.41673       -1.55814
S          2.18220       -0.62908       -0.14816
O          2.05798       -2.10394       -0.20064
O          1.32715       -0.10025        0.97341
O          3.52082       -0.08569       -0.20038
O          1.47284       -0.04636       -1.48707
H          0.50262       -0.19624       -1.46791
N          0.18283        2.23470        0.27757
C          1.18801        3.02950       -0.46408
C         -0.54784        2.97825        1.32574
H         -0.48556        1.79686       -0.38074
H          1.93768        3.39307        0.23973
H          1.66167        2.37946       -1.19972
H          0.69509        3.87067       -0.95412
H          0.16582        3.32709        2.07347
H         -1.05635        3.83172        0.87406
H         -1.27483        2.30085        1.77280
H          0.65909        1.39104        0.69143
N         -0.02604       -2.52897        1.41683
H         -0.87516       -2.45524        0.81428
H          0.10581       -1.61560        1.86518
H         -0.09926       -3.27708        2.09861
H          0.81620       -2.62129        0.78843
