36
2sa1dma1eda_105.log	Energy: -1083084.1400652
S          0.72478       -0.09132        1.44808
O          1.80577       -0.29415        2.40772
O         -0.62704        0.15073        1.96988
O          1.10111        1.00498        0.45982
O          0.69165       -1.42228        0.57978
H          2.69223        0.81103        0.33179
H         -0.07773       -1.35664       -0.08613
S         -2.66561       -1.08809       -0.56602
O         -3.45736       -2.05945       -1.28154
O         -1.23717       -0.96158       -1.01733
O         -3.25299        0.27950       -0.47093
O         -2.57829       -1.63944        0.94732
H         -2.09527        1.34203       -0.34959
H         -2.01567       -1.03458        1.47429
N         -1.34992        2.10248       -0.37523
C         -1.62393        3.08043        0.69517
C         -1.33347        2.65944       -1.73971
H         -0.44262        1.64231       -0.17421
H         -2.61760        3.50591        0.54647
H         -1.58042        2.55332        1.64830
H         -0.87066        3.87032        0.67223
H         -2.30496        3.10703       -1.95417
H         -0.54910        3.41475       -1.82264
H         -1.15059        1.84311       -2.43879
H          4.84291       -1.24273        0.00459
H          3.14237       -1.53220        0.46995
H          3.50004       -1.92720       -1.99268
H          2.35147       -0.63120       -1.66848
H          5.09530       -0.30581       -2.62591
H          3.73257        0.43526       -3.13058
H          3.99534        0.56819        1.34223
H          4.26940        1.08245       -0.25303
C          3.80908       -0.91253       -0.12972
C          3.40715       -0.90892       -1.59779
N          3.70964        0.48955        0.36707
N          4.21426        0.08629       -2.31070
