30
2sa1a1eda_78.log	Energy: -1033766.9613156
S          0.58215       -1.86248        0.05081
O         -0.46510       -2.87557       -0.16985
O          0.28891       -1.00309        1.22484
O          1.96100       -2.38445        0.04660
O          0.59632       -0.88133       -1.22452
H         -0.25990       -0.35392       -1.26766
S         -1.99209        1.32641       -0.02460
O         -2.94485        0.65282        0.89776
O         -1.66264        0.38582       -1.14471
O         -2.32018        2.67560       -0.42197
O         -0.60543        1.47392        0.80996
H         -0.31915        0.56930        1.09453
H          2.23854        0.36808        1.31131
H          3.99106        0.63720        1.41702
H          2.59065        2.79096        1.27757
H          3.82353        2.66179        0.01613
H          0.95944        2.14472       -0.33350
H          1.93969        3.12485       -1.21718
H          2.95550       -1.04302       -0.29143
H          2.58213        0.37672       -1.12380
C          3.10948        0.77000        0.78868
C          2.88473        2.22963        0.38162
N          3.25329       -0.04729       -0.45095
N          1.90637        2.25668       -0.69772
H          4.19017       -0.00522       -0.84587
N         -3.00441       -1.87158        0.04290
H         -3.67341       -2.49798        0.48145
H         -3.25783       -1.70231       -0.92917
H         -2.99643       -0.91612        0.51463
H         -2.04113       -2.29025        0.05029
