34
2sa1ma1tma_20.log	Energy: -1048348.9544687
S          2.74358        0.08830        0.02094
O          2.85324        1.54963        0.03352
O          2.15304       -0.49620        1.23579
O          2.12666       -0.47403       -1.20826
O          4.27351       -0.47568       -0.08140
H          4.82213        0.06498        0.50188
S         -2.60773       -0.71007       -0.03712
O         -1.62524       -0.80185        1.06646
O         -3.00405        0.69993       -0.28202
O         -2.23067       -1.47449       -1.22446
O         -3.95908       -1.44849        0.47222
H         -4.33283       -0.93517        1.20102
N          0.34522       -2.29517       -0.28263
H         -0.10035       -1.78315        0.49558
H         -0.42675       -2.49253       -0.92766
C          1.07445       -3.49139        0.18470
H          1.53631       -3.98493       -0.67001
H          1.84425       -3.15840        0.88031
H          0.38296       -4.17152        0.68188
H          1.00900       -1.61924       -0.73885
N         -0.86301        2.34281       -0.00101
C         -0.10583        1.94532       -1.21971
H          0.10435        0.87778       -1.17653
H         -0.71918        2.16349       -2.09419
H          0.84341        2.48156       -1.24700
C         -1.28802        3.75963       -0.06623
H         -1.88401        3.91055       -0.96670
H         -1.88798        3.99274        0.81392
H         -0.40139        4.39635       -0.09228
C         -0.10275        2.04905        1.24650
H         -0.70233        2.37282        2.09795
H          0.07020        0.97570        1.31146
H          0.85509        2.56933        1.20960
H         -1.72848        1.74821       -0.00250
