36
2sa1dma1eda_57.log	Energy: -1083088.4206713
S          2.95843        0.28191       -0.28958
O          3.34981       -1.01427       -0.83777
O          2.57118        1.29572       -1.29020
O          1.96432        0.18690        0.81438
O          4.25430        0.88393        0.48926
H          4.99146        0.90773       -0.13590
S         -2.54873       -0.74278       -0.45059
O         -1.92226        0.05941       -1.52532
O         -2.83654       -2.12469       -0.81056
O         -1.83153       -0.56711        0.83818
O         -3.97715       -0.02084       -0.12751
H         -4.61124       -0.30307       -0.80061
N          0.48674       -2.08009        0.75799
C          0.76578       -3.10319        1.78419
C          0.52115       -2.58996       -0.63552
H         -0.43961       -1.63607        0.92332
H          1.75876       -3.51987        1.61093
H          0.73003       -2.63462        2.76764
H          0.01335       -3.89049        1.72107
H          1.52269       -2.96224       -0.84882
H         -0.23701       -3.36508       -0.74994
H          0.29466       -1.76566       -1.31223
H          1.16678       -1.28740        0.84034
H         -0.00167        3.82339        0.11756
H         -1.05429        3.47016       -1.27792
H         -2.33109        3.91439        0.87958
H         -2.68873        2.34744        0.16045
H         -1.68027        2.77246        2.71828
H         -1.80956        1.31717        1.94101
H          0.86159        1.85823       -0.96376
H          0.18155        1.44386        0.47124
C         -0.72825        3.12037       -0.29595
C         -1.90712        2.92925        0.66246
N         -0.04362        1.81898       -0.46128
N         -1.44834        2.26383        1.87703
H         -0.67252        1.13341       -0.93052
