30
2sa1a1eda_55.log	Energy: -1033767.5592003
S          0.31184        2.05029       -0.32669
O          0.47108        1.00424       -1.36790
O          0.59147        1.41958        1.02473
O          1.01222        3.29144       -0.54074
O         -1.25308        2.40808       -0.28579
H         -1.77856        1.57732       -0.40919
S         -2.01708       -1.30566       -0.27256
O         -2.57624        0.06976       -0.16689
O         -1.18678       -1.57656        0.96679
O         -2.94464       -2.36098       -0.59131
O         -0.94892       -1.26157       -1.46928
H         -0.50374       -0.37415       -1.49634
H          2.24839       -2.54836       -0.76576
H          1.77467       -0.97394       -1.44958
H          4.27849       -1.19127       -1.32018
H          3.66213        0.13905       -0.33842
H          4.63388       -2.42720        0.67292
H          4.97025       -0.91647        1.19815
H          0.56658       -1.60775        0.66869
H          2.09635       -1.46365        1.41247
C          2.26973       -1.46619       -0.61467
C          3.69176       -0.95175       -0.42516
N          1.50903       -1.16876        0.62427
N          4.23883       -1.50393        0.81659
H          1.31540       -0.14610        0.72780
N         -1.57707        0.66667        2.40579
H         -1.62585        0.74568        3.41677
H         -0.73310        1.15287        2.00013
H         -1.49224       -0.32713        2.06507
H         -2.41418        1.04500        1.96097
