30
2sa1a1eda_89.log	Energy: -1033762.3818770
S          2.32964       -0.95197        0.10680
O          2.71354        0.36641        0.61642
O          1.85222       -1.89836        1.13250
O          1.42652       -0.89767       -1.07166
O          3.66823       -1.61163       -0.53815
H          4.34512       -1.65240        0.15124
S         -2.91157       -0.27989       -0.02952
O         -2.05212       -0.23929       -1.22501
O         -4.25700        0.24694       -0.14903
O         -2.81635       -1.58301        0.68053
O         -2.08514        0.77907        0.95058
H         -2.59254        0.91866        1.76038
H          2.01958        2.04766       -1.13583
H          0.85919        3.01538       -2.07336
H          1.87769        4.20117       -0.04899
H          0.10787        4.17301       -0.03936
H          1.74286        2.23005        1.45680
H          0.75895        3.40642        2.08944
H          0.43488        0.53454       -1.07099
H         -0.20697        1.48351        0.13640
C          1.04611        2.54044       -1.10956
C          1.00152        3.54438        0.04369
N          0.03828        1.47457       -0.87107
N          0.91811        2.80323        1.29331
H         -0.84042        1.54210       -1.38773
N         -0.52821       -2.73108       -0.07043
H         -0.25062       -2.16758       -0.88215
H         -1.44464       -2.34045        0.29891
H         -0.63011       -3.70627       -0.33561
H          0.24774       -2.61162        0.60747
