27
2sa1tma_35.log	Energy: -988152.6752924
S          0.94615        2.16800       -0.09616
O          0.83554        3.57986       -0.31111
O          2.24240        1.51139       -0.06324
O          0.29294        1.76106        1.31057
O          0.00958        1.45877       -1.14314
H         -0.57947        2.17489        1.40243
H          0.15603        0.47713       -1.12612
S          1.47479       -1.86610       -0.06734
O          1.79055       -3.24783       -0.27931
O          0.59199       -1.14644       -0.97020
O          0.77545       -1.68054        1.36517
O          2.82847       -1.08535        0.08612
H          1.17534       -2.28787        2.00567
H          2.67163       -0.10293        0.05805
N         -3.47737       -0.75662        0.17963
C         -2.60648        0.05985        0.99767
H         -3.03230        0.17291        1.99972
H         -1.62521       -0.41425        1.09125
H         -2.46663        1.07503        0.56414
C         -2.90244       -0.98034       -1.13540
H         -1.92605       -1.46131       -1.03797
H         -3.55267       -1.63950       -1.71734
H         -2.77076       -0.03755       -1.70262
C         -4.80525       -0.17994        0.08432
H         -5.45442       -0.83961       -0.49830
H         -5.23848       -0.07139        1.08320
H         -4.80083        0.81578       -0.40200
