36
2sa1dma1eda_129.log	Energy: -1083077.1391492
S         -1.14224        1.83863       -0.62729
O         -0.13025        2.36450        0.27266
O         -0.59533        0.78065       -1.54191
O         -2.42246        1.41342       -0.02945
O         -1.51578        3.08529       -1.58537
H         -2.35201        2.88913       -2.02987
S         -1.54461       -1.86188        0.37595
O         -1.75630       -3.25333        0.65438
O         -0.42020       -1.15330        0.97970
O         -1.41108       -1.70346       -1.19868
O         -2.87412       -1.08967        0.72227
H         -1.15369       -0.76121       -1.41375
H         -2.75826       -0.11771        0.52541
N          1.54079        0.70190        2.22859
C          2.05339        1.99296        2.68315
C          1.87966       -0.40645        3.11904
H          0.52895        0.75751        2.13108
H          3.14841        1.97709        2.66156
H          1.69505        2.77408        2.01001
H          1.73622        2.23237        3.70798
H          2.96558       -0.55011        3.12431
H          1.55549       -0.22826        4.15412
H          1.40012       -1.31622        2.75247
H          3.25119       -1.44520       -0.07861
H          1.53717       -1.86966       -0.25298
H          2.81514       -2.51051       -2.30833
H          1.62012       -1.26385       -2.66222
H          4.50745       -0.86407       -2.47834
H          3.45642       -0.30992       -3.60138
H          1.86927        0.40331        0.66186
H          2.65159        0.77004       -0.86297
C          2.33663       -1.23963       -0.64350
C          2.55970       -1.45730       -2.13498
N          1.96338        0.17000       -0.40209
N          3.56688       -0.51014       -2.61501
H          1.04585        0.38261       -0.83033
