36
2sa1dma1eda_80.log	Energy: -1083089.5491718
S         -0.51371       -2.05176        0.34918
O         -0.22487       -1.09058       -0.73827
O          0.49621       -3.10836        0.48514
O         -0.30705       -1.21155        1.72451
O         -1.92624       -2.48805        0.32179
H         -2.69587       -1.06160       -0.38209
S         -0.13629        2.04808        0.33868
O         -0.52783        2.37103       -1.03132
O          1.20192        1.48786        0.54821
O         -0.03692        3.46391        1.13654
O         -1.20431        1.27616        1.05421
H         -0.76916        4.02110        0.84193
H         -0.66724       -0.30067        1.60844
N         -2.96474       -0.08007       -0.62297
C         -4.33389        0.19302       -0.14509
C         -2.75096        0.16012       -2.06795
H         -2.29151        0.50482       -0.08159
H         -5.03681       -0.45108       -0.67534
H         -4.37992       -0.01295        0.92432
H         -4.57634        1.24042       -0.33043
H         -3.42754       -0.47785       -2.63908
H         -2.93756        1.21233       -2.28374
H         -1.71268       -0.08311       -2.28635
H          3.39111       -1.77900       -1.33272
H          1.97235       -0.74364       -1.63382
H          4.14347        0.45702       -2.18147
H          3.23180        1.24615       -0.88560
H          5.66890       -0.33440       -0.55619
H          5.25674        1.09480        0.12770
H          1.96695       -1.89103        0.54462
H          3.30295       -0.90796        0.95803
C          2.88135       -0.85618       -1.04281
C          3.80554        0.35155       -1.14305
N          2.46419       -0.99768        0.37514
N          4.89519        0.19904       -0.17532
H          1.81830       -0.21794        0.60674
