36
2sa1dma1eda_145.log	Energy: -1083075.1731181
S          0.64250        1.01018        0.52646
O          1.10825       -0.43035        0.42389
O          0.04952        1.41411       -0.78057
O         -0.24525        1.23031        1.66241
O          1.94043        1.84558        0.74715
H          2.74625        1.43430        0.17097
S         -0.86301       -2.82040       -0.12809
O         -2.03811       -1.95029       -0.13245
O         -1.04551       -4.22148       -0.36817
O          0.18340       -2.25269       -1.17459
O         -0.11091       -2.64175        1.25532
H          0.58988       -1.42067       -0.78883
H          0.29929       -1.73755        1.28627
N          3.86325        0.79915       -0.56322
C          4.45730       -0.19976        0.33244
C          4.82378        1.78864       -1.05644
H          3.43075        0.32176       -1.35007
H          4.83982        0.30789        1.22175
H          3.67872       -0.89867        0.64201
H          5.28131       -0.74501       -0.14516
H          5.20468        2.36396       -0.20861
H          5.67296        1.32325       -1.57344
H          4.31857        2.47544       -1.73847
H         -4.13142        0.74674        0.62818
H         -2.49882        0.99472        1.31660
H         -3.76849        3.15941        1.21954
H         -2.31497        3.17813        0.21872
H         -5.06649        2.97261       -0.75600
H         -3.85153        3.92593       -1.29172
H         -2.50511       -0.34053       -0.72675
H         -3.09526        1.03544       -1.55272
C         -3.16364        1.23550        0.48664
C         -3.31327        2.74035        0.31393
N         -2.55534        0.69022       -0.75451
N         -4.06530        3.01083       -0.91445
H         -1.55996        1.02926       -0.84413
