25
2sa1a1ma_10.log	Energy: -974370.2930392
S          2.43209       -0.22064       -0.11712
O          2.26388       -1.54523       -0.75401
O          2.24963        0.90179       -1.06585
O          1.67755       -0.06791        1.12898
O          3.98294       -0.14630        0.35568
H          4.54435       -0.25705       -0.42382
S         -2.42877       -0.22450       -0.11553
O         -2.24100        0.92208       -1.03422
O         -2.22912       -1.53113       -0.78095
O         -1.70573       -0.09560        1.15106
O         -3.99104       -0.17903        0.32082
H         -4.53197       -0.26473       -0.47610
N          0.01128        2.36414       -0.47671
H         -0.83218        1.80029       -0.74418
H          0.87176        1.80898       -0.70406
C         -0.03145        2.68934        0.97220
H          0.85330        3.26855        1.23533
H         -0.94080        3.25079        1.18496
H         -0.03857        1.74769        1.51768
H          0.02149        3.20308       -1.05281
N          0.00486       -2.39268        0.55693
H          0.00436       -1.58946        1.19944
H         -0.00544       -3.26553        1.07559
H         -0.85010       -2.28748       -0.03489
H          0.86968       -2.29847       -0.02141
