31
2sa1a1tma_20.log	Energy: -1023682.8229164
S         -1.57743       -1.59221        0.02733
O         -0.45435       -2.22862        0.75713
O         -2.64982       -1.04237        0.84812
O         -1.08510       -0.64955       -1.00558
O         -2.28721       -2.81668       -0.77014
H         -1.59082       -3.38566       -1.12395
S          2.02408        0.36845        0.56064
O          3.29920        0.77818        1.11277
O          0.81438        1.08483        0.92715
O          2.10263        0.42514       -1.01332
O          1.87457       -1.15651        0.89204
H          3.01693        0.05954       -1.29808
H          0.92610       -1.51082        0.80136
N          4.54279       -0.51959       -1.42664
H          4.96441       -0.15075       -0.57685
H          5.10482       -0.23012       -2.21971
H          4.56795       -1.53286       -1.36984
N         -1.80070        1.85654       -0.24733
C         -2.00736        2.09801        1.20555
H         -2.53749        1.23814        1.61483
H         -1.03371        2.18904        1.68266
H         -2.58924        3.01498        1.32532
C         -0.95169        2.89778       -0.87402
H          0.00362        2.91565       -0.35162
H         -0.79032        2.63419       -1.91963
H         -1.45803        3.86288       -0.80027
C         -3.09733        1.68755       -0.95148
H         -2.89908        1.44299       -1.99473
H         -3.63028        0.86122       -0.48047
H         -3.66633        2.61684       -0.87622
H         -1.30571        0.94068       -0.36821
