28
2sa1a1dma_65.log	Energy: -999011.2898378
S         -3.32069       -0.37526        0.04849
O         -4.65914       -0.83343       -0.21562
O         -2.93505        0.99997       -0.20814
O         -3.01391       -0.57907        1.61792
O         -2.32809       -1.35607       -0.64499
H         -3.45534       -1.38740        1.91532
H         -1.38829       -0.95460       -0.73993
S          0.54072        0.86239       -0.38096
O          1.83320        1.24719       -0.95451
O         -0.01163       -0.38749       -0.96598
O          0.57169        0.79578        1.10373
O         -0.45062        2.04433       -0.78379
H          2.14669        1.05610        1.60106
H         -1.37103        1.78275       -0.55709
N          3.76959       -0.81011       -0.13429
C          3.00606       -2.00502        0.24090
C          5.14882       -1.10684       -0.51816
H          3.28126       -0.34185       -0.89957
H          3.43940       -2.44365        1.14542
H          1.96907       -1.72641        0.44073
H          3.01365       -2.76376       -0.55158
H          5.68687       -1.51526        0.34293
H          5.20521       -1.83800       -1.33531
H          5.64789       -0.18837       -0.83656
N          3.19716        1.13945        1.59764
H          3.42082        2.02487        1.14840
H          3.55510        0.30479        0.93919
H          3.58014        1.11280        2.53773
