21
2sa1ma_14.log	Energy: -938861.4188271
S          1.98280       -0.63935        0.04208
O          1.05545       -0.13283        1.10790
O          3.14803       -1.36056        0.49638
O          1.21320       -1.26664       -1.05111
O          2.51432        0.80222       -0.54720
H         -0.28299       -0.72898       -1.21322
H          3.36178        0.65175       -0.98792
S         -2.12916       -0.45832       -0.02894
O         -3.26739       -1.20415       -0.47491
O         -1.11826       -0.15929       -1.21160
O         -2.35677        0.84393        0.60744
O         -1.29505       -1.38077        0.94150
H         -1.03550        1.91468        0.78304
H         -0.41596       -0.96545        1.16315
N         -0.07812        2.33231        0.73466
H          0.03757        3.01398        1.48151
C          0.15183        2.92280       -0.60883
H          1.18147        3.26836       -0.67915
H         -0.02744        2.14235       -1.34665
H         -0.54750        3.74453       -0.75956
H          0.55796        1.52311        0.91171
