33
2sa1ma1eda_204.log	Energy: -1058399.9323308
S         -2.58878       -0.99359        0.36845
O         -3.91748       -0.45039        0.20493
O         -1.67999       -0.48875        1.36570
O         -2.71572       -2.57097        0.67219
O         -1.92247       -0.96452       -1.05310
H         -3.45629       -2.92557        0.15978
H         -0.91574       -1.18762       -1.04639
S          1.66580       -0.77222       -0.55761
O          0.53193       -1.36812       -1.30421
O          2.81279       -0.46017       -1.45044
O          1.16940        0.59916        0.04569
O          2.09990       -1.56252        0.61715
H          0.50173        1.11328       -0.60024
H          3.73505       -1.11323        0.93112
N          4.50319       -0.46312        0.62517
H          5.42095       -0.88896        0.72314
C          4.37444        0.83644        1.33089
H          5.09665        1.54491        0.92622
H          3.35860        1.19998        1.16721
H          4.54637        0.68628        2.39614
H          4.23004       -0.36260       -0.38117
H         -2.55489        2.09827        0.28467
H         -2.27446        3.80960        0.60245
H         -1.84444        3.43865       -1.70834
H         -0.29281        3.76995       -0.90224
H         -1.27038        1.08462       -1.61835
H         -0.10054        1.91192       -2.39875
H         -1.22455        2.70183        2.31922
H         -0.48063        1.62744        1.36599
C         -1.76872        2.86783        0.36460
C         -1.10699        3.04566       -0.99612
N         -0.78826        2.59598        1.40988
N         -0.53294        1.77781       -1.48839
