37
2sa1dma1tma_61.log	Energy: -1072992.4983973
S         -3.14100        0.06271       -0.36992
O         -4.39985        0.28553       -1.03209
O         -1.89083        0.39329       -1.05049
O         -3.08851        1.01429        0.93999
O         -3.10348       -1.36238        0.19898
H         -3.95001        0.98103        1.38022
H         -2.12404       -1.76011        0.42102
S          0.34432       -1.58824        0.51384
O          1.55319       -2.35674        0.72080
O         -0.91922       -2.37382        0.63408
O          0.24524       -0.32353        1.28429
O          0.42008       -1.12933       -1.04227
H          0.62566        1.05559        0.55931
H         -0.41787       -0.67120       -1.25959
N          3.62829       -0.26257       -0.29776
C          4.91589       -0.11434        0.36518
C          3.76692       -0.61515       -1.70463
H          3.09567       -0.99645        0.16580
H          5.45226        0.74426       -0.05670
H          4.76314        0.07089        1.43276
H          5.56599       -0.99881        0.26172
H          4.21026        0.22445       -2.25457
H          4.40617       -1.49799       -1.86948
H          2.78012       -0.82823       -2.12327
N          0.86244        2.04380        0.26836
C          1.08535        2.05846       -1.19854
H          1.87860        1.34545       -1.42286
H          0.15920        1.76909       -1.69463
H          1.37493        3.06792       -1.50083
C         -0.29010        2.88597        0.66673
H         -1.17369        2.54336        0.12994
H         -0.45446        2.76622        1.73769
H         -0.07147        3.92985        0.42987
C          2.10343        2.39007        1.00605
H          1.91823        2.26787        2.07375
H          2.87747        1.69295        0.67377
H          2.37370        3.42534        0.78424
