33
2sa1ma1eda_84.log	Energy: -1058421.4892452
S         -0.37263       -1.47632       -0.20778
O         -1.24533       -0.69771       -1.12670
O          0.85047       -1.99552       -0.84231
O         -0.03900       -0.66046        1.00482
O         -1.19673       -2.71723        0.26194
H         -2.14223       -2.37750        0.57032
S         -0.68516        2.52099        0.00354
O         -1.12728        3.86983        0.20339
O          0.72683        2.27982       -0.31168
O         -1.05347        1.67594        1.28218
O         -1.56724        1.88501       -1.13654
H         -0.65119        0.74536        1.21895
H         -1.40646        0.89378       -1.19920
N         -3.51531       -1.72838        0.88342
H         -4.00395       -2.16438        1.65966
C         -4.33126       -1.76103       -0.34224
H         -5.28770       -1.23971       -0.23222
H         -3.75661       -1.30066       -1.14756
H         -4.52198       -2.80202       -0.61093
H         -3.33001       -0.76555        1.15525
H          3.49630        0.89310        1.14732
H          2.28689       -0.38188        1.44284
H          4.64398       -1.28452        1.62402
H          3.72572       -2.04960        0.32270
H          5.82840       -0.04261       -0.01909
H          5.62000       -1.46199       -0.80478
H          1.85466        0.98860       -0.54639
H          3.27674        0.32159       -1.21862
C          3.09409       -0.05674        0.78510
C          4.18616       -1.10959        0.64245
N          2.50681        0.18148       -0.55717
N          5.13060       -0.67851       -0.39011
H          1.95742       -0.66213       -0.83996
