28
2sa1a1dma_21.log	Energy: -999030.4327860
S          1.56505        0.34883        0.20423
O          1.44826       -0.85575       -0.66150
O          1.51660        1.61267       -0.56380
O          0.54874        0.35963        1.29089
O          2.96146        0.25610        0.91204
H          3.61069       -0.31133        0.34439
S         -1.91120       -1.55822       -0.02910
O         -3.02255       -2.46208        0.00106
O         -2.13343       -0.17914       -0.48144
O         -1.27285       -1.50369        1.41090
O         -0.78865       -2.19787       -0.92805
H         -0.53831       -0.81730        1.44401
H          0.06094       -1.66421       -0.88621
N         -1.08931        2.34592       -0.23491
C         -1.70147        3.06248       -1.37187
C         -1.26774        2.99733        1.08093
H         -1.47685        1.38221       -0.19900
H         -1.24626        4.04970       -1.46326
H         -1.52442        2.48807       -2.28085
H         -2.77467        3.15953       -1.20297
H         -0.81699        3.99031        1.05088
H         -2.33313        3.07561        1.30224
H         -0.76540        2.38137        1.82634
H         -0.06586        2.19967       -0.40871
N          4.44072       -1.28960       -0.60765
H          4.95304       -2.02338       -0.12956
H          5.06889       -0.83531       -1.26229
H          3.68157       -1.71675       -1.13424
