33
2sa1ma1eda_93.log	Energy: -1058419.1809453
S          1.16743       -1.53930       -0.23233
O          0.44125       -2.68621       -0.78229
O          1.53688       -0.49830       -1.23398
O          0.36138       -0.90423        0.87922
O          2.50019       -2.04925        0.38780
H          3.25826       -1.29311        0.29784
S         -0.45441        2.13161       -0.11643
O         -0.69622        3.54107        0.00409
O         -1.58333        1.21771       -0.29311
O          0.55952        1.91750       -1.30415
O          0.35579        1.65166        1.15377
H          0.88107        0.96352       -1.33666
H          0.40771        0.64016        1.14301
N          4.20899       -0.17868        0.07205
H          5.18459       -0.44410        0.16751
C          3.88602        0.97764        0.92511
H          4.50519        1.85261        0.70421
H          2.83885        1.24598        0.77666
H          4.02200        0.69836        1.97164
H          4.04430        0.04995       -0.90570
H         -3.86251       -2.64305        0.14686
H         -2.85423       -2.32030        1.58308
H         -4.91502       -0.80195        1.40132
H         -3.38719        0.07963        1.47131
H         -5.24022        0.12781       -0.64681
H         -3.78393        0.90799       -0.55159
H         -1.55254       -2.42821       -0.57144
H         -2.43949       -1.06210       -1.03092
C         -3.23324       -1.90410        0.64789
C         -3.99329       -0.58934        0.85170
N         -2.08373       -1.61338       -0.23878
N         -4.25537        0.01556       -0.45087
H         -1.36500       -1.03939        0.24380
