31
2sa1a1tma_39.log	Energy: -1023675.5346198
S         -0.36550        0.63757        0.43222
O         -0.52056        1.39267       -0.81005
O          0.81787        1.01571        1.23688
O         -1.60085        0.55133        1.24198
O         -0.14178       -0.91801        0.01127
H          0.75945       -1.01453       -0.37193
S          3.56941       -0.23599       -0.30272
O          2.44206       -0.92942       -0.90157
O          4.80425       -0.08214       -1.02350
O          3.14028        1.16633        0.22216
O          3.85084       -1.07106        1.04827
H          2.19380        1.14955        0.61796
H          4.67347       -0.75304        1.44744
N         -3.43956        2.34385       -0.51629
H         -3.84698        3.16453       -0.95330
H         -2.48408        2.25259       -0.86396
H         -3.33843        2.55167        0.47358
N         -3.45480       -0.89645       -0.05511
C         -3.08269       -2.20903        0.53029
H         -2.02196       -2.37656        0.34387
H         -3.25819       -2.17373        1.60570
H         -3.69115       -2.99177        0.07203
C         -4.85734       -0.51883        0.24100
H         -5.00147       -0.52399        1.32219
H         -5.01376        0.48668       -0.15231
H         -5.52888       -1.24159       -0.22847
C         -3.16971       -0.84282       -1.51315
H         -3.41379        0.15958       -1.86277
H         -2.10821       -1.03892       -1.66402
H         -3.77856       -1.59542       -2.01963
H         -2.82160       -0.19142        0.40918
