26
2sa1eda_15.log	Energy: -998260.1963510
S         -2.06905       -0.88291        0.01059
O         -1.37313       -2.09861        0.45761
O         -2.22989        0.17050        1.02910
O         -1.51338       -0.35942       -1.26179
O         -3.55616       -1.41628       -0.30429
H         -4.14849       -0.65521       -0.38082
S          0.48013        2.06847        0.04676
O          1.11542        0.75821        0.21629
O          1.29593        3.24676        0.01216
O         -0.37865        2.01870       -1.27570
O         -0.58353        2.24932        1.19437
H         -0.85157        1.13824       -1.34336
H         -1.20144        1.46546        1.22196
H          1.72529       -1.31385        1.42343
H          1.90177       -3.05928        1.16020
H          4.09902       -1.76388        1.24853
H          3.89156       -2.76091       -0.19340
H          3.34394        0.13184       -0.16855
H          4.56788       -0.64021       -0.95759
H          0.17090       -2.11534       -0.19148
H          1.22200       -0.96729       -0.79745
C          2.06079       -2.07467        0.71718
C          3.51982       -1.86566        0.31898
N          1.16848       -1.93989       -0.46549
N          3.62615       -0.74395       -0.60120
H          1.44264       -2.55292       -1.23120
