36
2sa1dma1eda_238.log	Energy: -1083057.3665141
S          3.68521        0.24393        0.30234
O          3.36115       -0.74898       -0.70483
O          4.99824        0.82844        0.37686
O          2.64036        1.39971        0.27919
O          3.38672       -0.50241        1.70068
H          1.72708        1.09264       -0.07060
H          3.82552       -0.00958        2.40863
S         -0.10272       -0.65228       -0.92736
O         -1.37839       -0.69965       -1.62735
O          0.38140        0.72864       -0.65071
O         -0.08067       -1.47216        0.31909
O          0.95205       -1.31501       -1.92198
H         -1.47174       -1.97559        0.75865
H          1.85502       -1.20702       -1.54796
N         -2.42164       -2.31446        1.12270
C         -3.27817       -2.67548       -0.03465
C         -2.99974       -1.24748        1.98081
H         -2.22562       -3.14452        1.68076
H         -3.39176       -1.78231       -0.64699
H         -2.77522       -3.44841       -0.61539
H         -4.24483       -3.03134        0.32637
H         -3.23917       -0.39763        1.32862
H         -3.90457       -1.62308        2.46303
H         -2.25885       -0.96631        2.72960
H         -4.27635        2.97309       -0.65581
H         -4.67847        2.23378        0.91026
H         -2.84746        3.77374        1.17003
H         -2.25262        2.13490        1.46225
H         -1.02115        3.81950       -0.13767
H         -1.06109        2.24817       -0.55685
H         -4.56803        0.63175       -0.92967
H         -2.97014        0.87707       -1.06625
C         -3.92497        2.27000        0.11291
C         -2.62108        2.82075        0.68017
N         -3.74434        0.90860       -0.40386
N         -1.64594        3.06010       -0.37794
