30
2sa1a1eda_119.log	Energy: -1033757.5977322
S         -0.13024       -1.63298       -0.37054
O          1.28089       -1.09060       -0.35884
O         -0.77693       -1.33033        0.93511
O         -0.90178       -1.19824       -1.52669
O          0.02655       -3.19587       -0.47809
H          0.81526       -3.50039        0.09383
S          1.89655        1.97077        0.02104
O          2.84713        3.02925        0.19144
O          0.47140        2.29560        0.01987
O          2.23643        1.20342       -1.32320
O          2.15622        0.86909        1.13246
H          1.79597        0.31451       -1.30857
H          1.75737        0.00925        0.81456
H         -2.87539        2.26094       -0.70253
H         -2.01325        0.81237       -1.29830
H         -4.49633        0.44083       -1.30020
H         -3.64438       -0.66449       -0.22109
H         -5.25568        1.63553        0.60195
H         -5.25423        0.11305        1.19619
H         -1.08163        1.74372        0.75509
H         -2.55780        1.35290        1.53069
C         -2.65561        1.20725       -0.51108
C         -3.92635        0.38272       -0.36505
N         -1.90809        1.12811        0.77167
N         -4.66205        0.84147        0.81640
H         -1.53855        0.15182        0.91453
N          2.19048       -3.80107        0.94084
H          2.82107       -3.07830        0.60429
H          2.62640       -4.70451        0.78934
H          2.07040       -3.66984        1.94017
