31
2sa1ma1dma_50.log	Energy: -1023680.5487467
S         -0.00360        2.21407        0.21165
O         -0.30197        3.40347        0.97821
O         -0.40132        0.91614        0.81848
O         -1.04811        2.24113       -1.08482
O          1.33803        2.14680       -0.39494
H         -1.04839        3.13596       -1.45066
H          2.42594        0.91989       -0.29437
S          2.22993       -1.18674        0.07698
O          3.03845        0.14266       -0.14510
O          3.16187       -2.23838        0.35296
O          1.39757       -0.91445        1.39697
O          1.27888       -1.34653       -1.02686
H          0.72461       -0.19035        1.24205
H         -0.34185       -0.82378       -1.33921
N         -1.32653       -0.59373       -1.56850
H         -1.90699       -0.79358       -0.68012
C         -1.79171       -1.36478       -2.73651
H         -2.84170       -1.14109       -2.92801
H         -1.19471       -1.11021       -3.61244
H         -1.67832       -2.42785       -2.52438
H         -1.35975        0.42052       -1.71650
N         -2.62254       -1.01456        0.82055
C         -2.01063       -2.18331        1.45598
C         -4.07954       -1.00368        0.92411
H         -2.23782       -0.17189        1.24554
H         -2.33143       -3.09030        0.93372
H         -0.92260       -2.11063        1.38675
H         -2.28671       -2.28109        2.51479
H         -4.49036       -1.85907        0.37850
H         -4.42998       -1.06423        1.96422
H         -4.47375       -0.08763        0.47712
