36
2sa1dma1eda_177.log	Energy: -1083072.5400695
S          2.37808       -0.69586        0.00350
O          3.69262       -1.16839       -0.43415
O          1.49129       -1.69780        0.60913
O          2.51750        0.51615        0.88848
O          1.68148       -0.17554       -1.33639
H          3.79273        1.14757        0.63593
H          0.70286       -0.05210       -1.19440
S         -1.80707       -0.78248       -0.13587
O         -3.08011       -1.14147       -0.77394
O         -0.92631        0.07011       -0.95746
O         -2.04745       -0.17105        1.21432
O         -1.06404       -2.16052        0.10524
H         -3.52456        0.02069        1.39201
H         -0.10674       -2.00416        0.33462
N          4.78517        1.57805        0.39245
C          4.85837        1.73646       -1.07977
C          5.82620        0.68227        0.94779
H          4.83483        2.49101        0.84112
H          4.73829        0.74744       -1.52337
H          4.03538        2.37378       -1.40392
H          5.81714        2.17719       -1.36092
H          5.67919       -0.30129        0.50036
H          6.81910        1.07584        0.71963
H          5.68547        0.60985        2.02652
H         -5.86303        1.90428        1.18530
H         -4.16755        2.29128        1.60399
H         -4.79362        2.79435       -0.82061
H         -3.42297        1.69772       -0.65450
H         -5.80913        1.12994       -1.97316
H         -4.58942        0.06495       -1.61142
H         -5.00217        0.01085        2.28489
H         -5.01037       -0.34430        0.64970
C         -4.81537        1.65906        0.99322
C         -4.50357        1.78873       -0.50187
N         -4.59150        0.24336        1.38457
N         -5.23154        0.75679       -1.23299
