31
2sa1ma1dma_59.log	Energy: -1023679.6069303
S          0.73432       -1.62128        0.00317
O          1.23672       -1.12389        1.28631
O         -0.71076       -1.99591        0.07090
O          1.05516       -0.79340       -1.16097
O          1.51194       -3.01120       -0.31211
H          1.31933       -3.63853        0.39825
S         -2.74135        0.35395       -0.03555
O         -4.03709        0.96462       -0.05867
O         -1.55110        1.19665       -0.06818
O         -2.65657       -0.57811        1.24733
O         -2.66101       -0.68108       -1.23503
H         -1.85974       -1.15686        1.15151
H         -1.86476       -1.25178       -1.09945
N          3.52215        0.82198       -0.78887
H          3.04891        0.05969       -1.27401
C          4.24943        0.29323        0.37477
H          5.03690       -0.41972        0.10449
H          4.70401        1.12039        0.92677
H          3.53585       -0.21340        1.02895
H          4.16136        1.25725       -1.44607
N          1.10064        1.95482       -0.01970
C          0.78328        3.18461       -0.77231
C          1.04646        2.11582        1.44998
H          0.42315        1.23084       -0.28916
H          1.48500        3.97006       -0.48642
H          0.87517        2.97685       -1.83868
H         -0.24011        3.48558       -0.54661
H          1.80375        2.84050        1.75460
H          0.05163        2.46314        1.73086
H          1.23843        1.14247        1.90169
H          2.06058        1.58966       -0.30991
