34
2sa1ma1tma_40.log	Energy: -1048332.7006996
S          3.53743       -0.47331       -0.20305
O          4.87224       -0.97640       -0.00774
O          3.28056        0.95037       -0.31156
O          2.96924       -1.08338       -1.58493
O          2.61482       -1.10847        0.87829
H          3.36464       -1.95700       -1.71467
H          1.71760       -0.61020        0.96801
S         -0.08444        1.28277        0.43548
O          0.41601        0.08601        1.17326
O         -1.23302        1.90781        1.10887
O          1.06590        2.38465        0.51177
O         -0.33431        0.97645       -0.98695
H          1.90075        1.99303        0.17215
H         -2.25405        1.13625       -1.38814
N         -3.06614        1.10182       -0.75604
H         -3.13379        0.07180       -0.42750
C         -4.31527        1.62571       -1.33160
H         -5.10680        1.56662       -0.58407
H         -4.17965        2.66486       -1.63205
H         -4.59436        1.02938       -2.20095
H         -2.71637        1.63122        0.06416
N         -3.04632       -1.49493        0.15238
C         -4.29548       -2.21595       -0.07969
H         -5.12109       -1.69959        0.41916
H         -4.50550       -2.25952       -1.15250
H         -4.24940       -3.24681        0.30628
C         -1.92906       -2.13550       -0.54946
H         -2.13933       -2.16723       -1.62254
H         -1.01618       -1.55773       -0.39110
H         -1.76951       -3.16482       -0.19229
C         -2.76072       -1.38517        1.58755
H         -1.82074       -0.84965        1.73747
H         -3.56573       -0.83247        2.08071
H         -2.67944       -2.37857        2.05571
