21
2sa1ma_05.log	Energy: -938862.4081397
S          2.10831       -0.32249       -0.07989
O          3.39682       -0.95747       -0.23275
O          2.08456        1.08027        0.37173
O          1.14052       -0.52757       -1.19072
O          1.38124       -1.10838        1.20777
H          1.76631       -1.99222        1.28393
S         -2.00091       -0.64636       -0.04125
O         -3.18451       -1.29626        0.43698
O         -2.12950        0.51318       -0.92178
O         -1.11939       -0.10354        1.18554
O         -1.06961       -1.72683       -0.68921
H         -0.32552       -0.66178        1.36094
H         -0.19860       -1.31284       -1.00084
N         -0.09501        2.37903       -0.57430
H         -0.78283        1.65569       -0.86468
H          0.77325        1.88249       -0.24330
C         -0.66932        3.19955        0.51978
H          0.06979        3.92819        0.85044
H         -1.56912        3.70030        0.16429
H         -0.92198        2.52597        1.33739
H          0.15028        2.93817       -1.38889
