33
2sa1ma1eda_86.log	Energy: -1058421.6722018
S         -0.23243       -1.57111       -0.37297
O          1.09570       -1.97265       -0.86827
O         -0.12261       -0.80938        0.91315
O         -1.02298       -0.80160       -1.36832
O         -1.00335       -2.89561       -0.07378
H         -1.98159       -2.68406        0.23483
S         -0.92335        2.38063       -0.02346
O          0.50001        2.27431       -0.36075
O         -1.48588        3.68010        0.20155
O         -1.75870        1.67651       -1.15685
O         -1.19230        1.49559        1.25292
H         -1.44850        0.72671       -1.29142
H         -0.76608        0.58046        1.14879
N         -3.43861       -2.36891        0.69451
H         -4.07039       -2.99446        0.20240
C         -3.79836       -0.96304        0.42828
H         -4.83601       -0.73404        0.69177
H         -3.13667       -0.30974        0.99910
H         -3.63887       -0.75369       -0.63001
H         -3.53130       -2.57751        1.68463
H          3.21521        1.17313        1.24487
H          2.13661       -0.23308        1.42656
H          4.55259       -0.86335        1.84075
H          3.85376       -1.72080        0.46305
H          5.73803        0.51420        0.30879
H          5.77480       -0.91976       -0.47658
H          1.76000        1.10696       -0.59609
H          3.29457        0.58112       -1.13275
C          2.96201        0.18609        0.84924
C          4.17397       -0.73650        0.81890
N          2.48348        0.36561       -0.54492
N          5.15876       -0.19852       -0.12198
H          2.04612       -0.52932       -0.86470
