33
2sa1ma1eda_08.log	Energy: -1058429.4565447
S          1.74531       -1.76615       -0.21769
O          0.68387       -2.52906        0.46823
O          1.20966       -0.98267       -1.35080
O          2.64168       -1.01489        0.67157
O          2.74943       -2.86339       -0.85920
H          2.24266       -3.42683       -1.45953
S         -0.69264        1.93000       -0.68473
O         -0.36017        1.48515        0.71066
O         -1.70278        1.02290       -1.27505
O         -0.93426        3.34992       -0.82313
O          0.68671        1.67045       -1.50929
H          0.85303        0.69865       -1.55579
N          2.29165        1.68136        0.90823
H          2.48411        2.15078        0.02243
H          1.23625        1.68650        0.98887
C          2.96986        2.30904        2.05858
H          2.71167        1.75209        2.95873
H          4.04937        2.27929        1.91117
H          2.63421        3.34103        2.15883
H          2.54490        0.67423        0.79630
H         -2.35832       -1.78289        1.96441
H         -1.75995       -0.12900        1.64441
H         -4.26119       -0.14202        1.95586
H         -3.77747        0.39104        0.34010
H         -4.94485       -2.20559        1.01072
H         -5.31903       -1.18700       -0.21415
H         -0.89835       -1.87193        0.10789
H         -2.49610       -2.00374       -0.46984
C         -2.38686       -0.93918        1.26931
C         -3.81467       -0.47312        1.01001
N         -1.80979       -1.38898       -0.02150
N         -4.55540       -1.54770        0.34445
H         -1.67212       -0.54668       -0.63121
