39
2sa1eda1tma_32.log	Energy: -1107749.6255778
S         -0.29042       -1.80555       -0.89438
O         -0.35172       -1.30440        0.52403
O          1.11793       -1.75919       -1.35002
O         -1.00893       -3.04478       -1.11449
O         -1.09497       -0.71082       -1.75656
H         -0.66069        0.17396       -1.66768
S          0.61499        2.34193       -0.26725
O          1.95043        1.74910       -0.38937
O         -0.35813        1.80583       -1.24577
O          0.08575        2.39307        1.10749
O          0.76934        3.91877       -0.63706
H          1.11561        3.97851       -1.53783
H         -3.74511        1.69716        0.51204
H         -2.67451        1.06786       -0.76052
H         -4.77330       -0.30688       -0.59693
H         -3.33330       -1.24955       -0.22234
H         -5.33732       -0.32786        1.68765
H         -4.56003       -1.76447        1.60470
H         -1.43417        1.47003        1.28493
H         -2.49829        0.39720        2.08721
C         -3.14242        0.84063        0.19607
C         -3.97019       -0.43660        0.13886
N         -2.06406        0.64955        1.19673
N         -4.44520       -0.76545        1.48598
H         -1.43514       -0.15242        0.91699
N          2.72168       -1.08916        0.72876
C          3.97131       -0.55939        0.12885
H          4.17197       -1.10971       -0.79076
H          3.81645        0.49434       -0.09771
H          4.79003       -0.69269        0.83972
C          2.30772       -0.32021        1.92961
H          2.19945        0.72682        1.65142
H          1.34785       -0.71229        2.26278
H          3.07090       -0.44508        2.70190
C          2.81755       -2.54144        1.01983
H          1.85318       -2.87826        1.40043
H          3.03859       -3.06827        0.09241
H          3.60351       -2.70579        1.76045
H          1.98281       -1.01770       -0.00830
