36
2sa1dma1eda_13.log	Energy: -1083093.2203218
S          0.67568       -1.89792       -0.38458
O         -0.55694       -2.58695       -0.83050
O          0.37464       -1.05986        0.82075
O          1.86575       -2.72074       -0.27930
O          1.05450       -0.81571       -1.53069
H          0.45018       -0.03744       -1.47815
S         -1.19051        2.09338       -0.19761
O         -2.42301        1.27688       -0.17631
O         -0.65007        2.43732        1.11704
O         -0.18440        1.56495       -1.14899
O         -1.63849        3.53238       -0.79954
H         -1.98547        3.39267       -1.69106
N         -2.65454       -1.37465        0.38624
C         -2.59881       -1.62699        1.84135
C         -3.93245       -1.74259       -0.25350
H         -2.47442       -0.36117        0.21038
H         -2.78162       -2.68653        2.02787
H         -1.60058       -1.35769        2.18508
H         -3.35505       -1.01997        2.34170
H         -4.11546       -2.80827       -0.10765
H         -4.74114       -1.15914        0.18923
H         -3.86293       -1.52462       -1.31904
H         -1.86634       -1.88817       -0.08261
H          3.72405        1.90715        1.53216
H          3.09395        0.53031        2.47689
H          4.94488       -0.11451        0.82736
H          3.43962       -1.00449        0.59580
H          4.67383        0.69091       -1.27976
H          3.25629       -0.14173       -1.44106
H          1.28205        1.93545        1.37425
H          1.95068        1.46312       -0.06645
C          3.19580        0.95234        1.47496
C          3.90099       -0.01417        0.51489
N          1.84690        1.20678        0.92535
N          3.78091        0.49473       -0.84957
H          1.26270        0.33101        0.94022
