33
2sa1ma1eda_31.log	Energy: -1058428.2032765
S         -2.55402       -0.55385        0.20203
O         -2.28230       -1.69694        1.07876
O         -2.57285        0.75226        0.89633
O         -1.72116       -0.54741       -1.02110
O         -4.05290       -0.74674       -0.39593
H         -4.67700       -0.70436        0.34136
S          2.74933       -0.36076        0.03039
O          2.69929       -1.47307       -0.94140
O          3.01892        0.95322       -0.54889
O          1.58843       -0.38744        0.95746
O          3.98429       -0.69652        1.03688
H          4.80799       -0.60265        0.53944
N          0.17284       -2.45887       -0.37412
H         -0.48229       -1.76055       -0.78602
H          1.12176       -2.29856       -0.76624
C         -0.34360       -3.83198       -0.54197
H          0.35219       -4.53972       -0.09173
H         -1.31639       -3.89109       -0.05461
H         -0.44613       -4.04204       -1.60618
H          0.24024       -2.18781        0.61028
H          1.07407        2.29024       -0.96061
H         -0.45962        1.43492       -1.26138
H         -0.63719        3.87090       -1.88824
H         -1.75858        3.42482       -0.59679
H          0.74984        4.89835       -0.23269
H         -0.75351        5.29975        0.27576
H          0.63458        1.05490        0.94725
H          0.18964        2.66167        1.30819
C          0.01948        2.22608       -0.68210
C         -0.69921        3.55911       -0.83779
N         -0.03361        1.83058        0.75123
N         -0.12850        4.52088        0.10782
H         -0.99346        1.49876        0.98309
