33
2sa1ma1eda_109.log	Energy: -1058417.4772383
S          0.18453        1.97170        0.16306
O          1.40753        1.45058       -0.45352
O         -0.92319        2.24484       -0.76839
O         -0.26104        1.18938        1.34691
O          0.66210        3.40454        0.73483
H         -0.10961        3.86937        1.08768
S         -2.53538       -0.78635       -0.41480
O         -3.63694       -1.69839       -0.51502
O         -1.21044       -1.18053       -0.88354
O         -2.94641        0.55075       -1.14556
O         -2.40468       -0.36269        1.10681
H         -2.20145        1.21007       -1.09496
H         -1.61634        0.23577        1.23616
N          1.15645       -1.48474        1.62061
H          2.09548       -1.51570        2.00881
C          0.28643       -2.52282        2.18379
H          0.15454       -2.43164        3.26775
H         -0.69455       -2.45725        1.70981
H          0.70690       -3.50801        1.96667
H          0.77951       -0.55506        1.80944
H          3.10650       -2.62368       -0.91950
H          2.89128       -1.87216       -2.51822
H          4.86336       -0.98717       -1.30341
H          3.69578        0.27368       -1.71040
H          4.68664        0.08236        0.68071
H          3.11103        0.46429        0.49488
H          0.75522       -1.83077       -1.50718
H          1.33897       -1.43552        0.04610
C          2.86651       -1.69280       -1.43993
C          3.86704       -0.60208       -1.06750
N          1.49337       -1.30520       -1.04170
N          3.79660       -0.27578        0.35547
H          1.31011       -0.30566       -1.20532
