37
2sa1dma1tma_67.log	Energy: -1072990.6807973
S         -0.25289       -1.63903        0.44529
O          0.97192       -2.40206        0.11331
O         -1.41436       -2.43657        0.81342
O          0.08712       -0.79434        1.77335
O         -0.54892       -0.62613       -0.61132
H          0.90805       -0.28243        1.60321
H         -2.09919       -0.26834       -0.64076
S          3.18767        0.24075       -0.23376
O          2.33601        0.54856        0.90202
O          4.56733        0.65064       -0.25289
O          3.12723       -1.27481       -0.57545
O          2.43371        0.94026       -1.47742
H          2.22883       -1.71349       -0.32257
H          3.02695        0.92892       -2.24201
N         -1.46752        2.90227        0.45444
C         -0.36358        2.72112       -0.48924
C         -1.08817        2.51956        1.81285
H         -1.73936        3.88042        0.45831
H         -0.12225        1.65812       -0.56773
H         -0.66421        3.07872       -1.47947
H          0.55305        3.25291       -0.19070
H         -0.88969        1.44423        1.84712
H         -0.18338        3.03543        2.17191
H         -1.90829        2.73971        2.50350
N         -3.15488       -0.15187       -0.67442
C         -3.60588        0.05610        0.72513
H         -3.25687       -0.78630        1.32366
H         -3.16581        0.98643        1.08442
H         -4.69668        0.11952        0.74289
C         -3.44579        1.02555       -1.52606
H         -2.99534        1.89833       -1.04553
H         -3.00455        0.86241       -2.51024
H         -4.52819        1.14561       -1.61722
C         -3.68576       -1.41566       -1.24135
H         -3.26761       -1.55255       -2.23923
H         -3.36525       -2.23648       -0.59888
H         -4.77540       -1.35596       -1.29362
