30
2sa1a1eda_62.log	Energy: -1033767.5497124
S         -0.32901        2.02870       -0.33811
O         -0.54307        1.53101        1.06037
O         -0.51287        0.87566       -1.28530
O         -1.06999        3.21914       -0.67311
O          1.22241        2.41234       -0.43840
H          1.77356        1.58921       -0.41535
S          2.09031       -1.26364       -0.27280
O          1.12008       -1.58691        0.84383
O          2.59639        0.12186       -0.06519
O          3.08076       -2.28536       -0.49997
O          1.18756       -1.20886       -1.60147
H          0.68474       -0.35841       -1.62574
H         -2.56588       -1.87104        1.71056
H         -2.15477       -0.13582        1.56563
H         -4.59484       -0.54540        1.08994
H         -3.73670        0.12590       -0.29680
H         -4.62684       -2.64377       -0.01339
H         -4.74308       -1.64447       -1.30388
H         -0.57250       -1.64384        0.37999
H         -1.88277       -2.04272       -0.63945
C         -2.50040       -1.01972        1.02719
C         -3.83367       -0.76543        0.33115
N         -1.48992       -1.33792       -0.00783
N         -4.15261       -1.90772       -0.52476
H         -1.26149       -0.48046       -0.56258
N          1.49012        0.56846        2.44820
H          0.69566        1.10772        1.99438
H          1.47883        0.62934        3.46141
H          1.37304       -0.40808        2.08573
H          2.37348        0.90109        2.05896
