37
2sa1dma1tma_64.log	Energy: -1072992.2568752
S          0.42882       -1.59978       -0.32310
O          0.83966       -0.69429        0.78667
O         -0.35570       -0.83493       -1.34149
O          1.52997       -2.36283       -0.89137
O         -0.56820       -2.66954        0.30955
H         -1.35444       -2.19198        0.65436
S         -3.19703        0.16212        0.32604
O         -2.61530       -0.94649        1.05885
O         -3.82745        1.25896        1.01472
O         -2.16311        0.75425       -0.67752
O         -4.28756       -0.53649       -0.63282
H         -1.44115        0.06090       -0.95614
H         -4.85865        0.14849       -1.00896
N          0.91256        2.19188       -0.34187
C          0.65984        3.18285       -1.37991
C          0.27682        2.54260        0.92426
H          0.53341        1.29927       -0.64500
H          1.13976        4.12996       -1.10909
H          1.09040        2.84499       -2.32755
H         -0.41273        3.37827       -1.53798
H          0.76198        3.43167        1.34493
H         -0.79772        2.75646        0.81997
H          0.39006        1.71314        1.62657
N          3.36571        0.06478        0.37476
C          3.54686        0.27024       -1.08599
H          3.16954       -0.61341       -1.60258
H          2.96908        1.15046       -1.36886
H          4.60934        0.41787       -1.29326
C          3.72829        1.27595        1.14792
H          3.10160        2.09219        0.78393
H          3.52782        1.09204        2.20414
H          4.78916        1.49134        1.00021
C          4.06925       -1.15392        0.84584
H          3.86363       -1.28894        1.90801
H          3.67819       -2.00663        0.28933
H          5.14244       -1.03513        0.68088
H          2.33691       -0.12057        0.53451
