26
2sa1eda_75.log	Energy: -998250.9377312
S          2.27271       -0.05184        0.03891
O          1.97588       -1.49165       -0.14197
O          2.44683        0.71157       -1.20313
O          1.32676        0.60295        0.97057
O          3.71381       -0.10357        0.76358
H          0.21549        1.52620       -0.04707
H          4.12866        0.76543        0.67832
S         -1.45526       -1.50177       -0.02223
O         -1.96556       -0.65741        1.02799
O         -1.14837       -0.86410       -1.30505
O         -0.27072       -2.39455        0.41560
O         -2.57564       -2.61517       -0.25683
H          0.67190       -1.98351        0.19580
H         -2.26293       -3.26337       -0.90501
H         -2.84212        1.85211       -0.13462
H         -2.83703        3.58004        0.18884
H         -1.56997        3.08530       -1.87565
H         -0.51637        3.79689       -0.63475
H         -0.69015        0.89047       -1.26410
H          0.59530        1.88369       -1.59074
H         -1.46932        1.42751        1.65355
H         -1.01212        3.02590        1.85192
C         -2.20309        2.68530        0.17626
C         -1.12474        2.92489       -0.89040
N         -1.72413        2.39687        1.50544
N         -0.21123        1.76104       -0.97181
