36
2sa1dma1eda_19.log	Energy: -1083089.3334466
S         -2.95447        0.24114       -0.31715
O         -2.64041        1.44647       -1.11420
O         -3.04135       -0.99491       -1.09497
O         -2.10805        0.11760        0.89340
O         -4.42632        0.51356        0.32146
H         -5.05203        0.62351       -0.40733
S          2.64645       -0.70444       -0.33009
O          3.41193        0.47985        0.05908
O          2.83578       -1.89747        0.49232
O          1.19582       -0.41103       -0.56042
O          3.11253       -1.08602       -1.84635
H          4.05583       -1.29706       -1.82311
N         -0.52999       -2.12482        0.68862
C         -0.96068       -3.26440       -0.14926
C          0.05525       -2.49907        1.99388
H          0.16989       -1.55743        0.16210
H         -1.68748       -3.86096        0.40381
H         -1.42857       -2.86476       -1.04823
H         -0.08666       -3.86844       -0.39739
H         -0.66450       -3.09963        2.55219
H          0.98086       -3.04842        1.82280
H          0.28153       -1.58521        2.54318
H         -1.31184       -1.45369        0.83224
H         -0.48327        3.64995        0.66835
H         -0.64939        2.02868        1.38250
H          1.43428        3.36012        2.16642
H          1.77432        1.75591        1.51800
H          2.68246        4.19881        0.45377
H          3.02329        2.65227       -0.01433
H         -0.97720        1.95068       -0.97053
H          0.57390        2.66281       -1.20131
C         -0.02188        2.66294        0.75380
C          1.42030        2.75677        1.25263
N         -0.00903        2.06814       -0.60620
N          2.27742        3.30717        0.20223
H          0.44672        1.13037       -0.58888
