25
2sa1a1ma_39.log	Energy: -974357.9782161
S          1.73985        0.21814       -0.29974
O          1.60714        0.83080        1.04106
O          1.04468       -1.11542       -0.34953
O          1.32164        1.12024       -1.38358
O          3.25890       -0.10707       -0.55252
H          3.50762       -0.94593       -0.02623
S         -2.41786       -0.83180       -0.07589
O         -2.21541        0.59770        0.10537
O         -3.69660       -1.31403       -0.53017
O         -1.31733       -1.45453       -0.95904
O         -2.12183       -1.43329        1.39405
H         -0.31728       -1.23608       -0.68419
H         -2.41864       -2.35440        1.41327
N         -0.30368        2.60058        0.23597
H          0.18169        2.42403       -0.66166
H         -1.12010        1.96642        0.23527
C         -0.64679        4.01294        0.48264
H         -1.12167        4.10327        1.45911
H          0.26357        4.61139        0.45949
H         -1.33399        4.35669       -0.28989
H          0.36839        2.19016        0.91262
N          3.59549       -2.36540        0.80134
H          3.72098       -2.24925        1.80142
H          4.25554       -3.06111        0.47169
H          2.65063       -2.70586        0.63714
