25
2sa1a1ma_72.log	Energy: -974337.7932257
S         -2.56452        0.05445       -0.01949
O         -3.96936        0.30466       -0.16748
O         -1.62582        0.37652       -1.08172
O         -1.99793        0.87957        1.23696
O         -2.38688       -1.43891        0.41709
H         -2.66539        0.91046        1.93814
H         -1.42007       -1.70266        0.39325
S          1.32007       -1.26381       -0.13513
O          0.15681       -2.04020        0.28623
O          2.55494       -1.94589       -0.43325
O          0.93499       -0.45484       -1.44371
O          1.54955       -0.16645        0.94485
H          0.01566       -0.10181       -1.36668
H          2.56100        0.18876        0.89501
N          0.38792        2.74998        0.11032
H          0.39814        1.92837        0.70538
C          1.65928        2.90519       -0.58132
H          1.98090        2.02426       -1.16185
H          1.60032        3.75355       -1.26892
H          2.43861        3.14568        0.15122
H         -0.37008        2.61885       -0.55004
N          3.99281        0.56019        0.75524
H          4.44113        0.86101        1.61520
H          4.12132        1.28709        0.05709
H          4.45841       -0.28171        0.42342
