39
2sa1eda1tma_124.log	Energy: -1107726.3089260
S          2.31573       -1.12748       -0.66717
O          2.33882       -1.55515        0.74212
O          1.13092       -1.52081       -1.42411
O          2.64560        0.32087       -0.82893
O          3.58862       -1.91607       -1.28198
H          3.68602       -1.66088       -2.20981
S          0.70608        2.21790        0.64270
O          0.15990        3.45885        1.10794
O          0.03755        0.96550        0.97108
O          0.84094        2.30288       -0.93792
O          2.21603        2.13072        1.12451
H          1.37409        1.52456       -1.23552
H          2.64641        1.38252        0.64242
H         -0.79117       -2.06458       -0.01944
H         -0.49299       -3.51024        0.95187
H         -2.96965       -3.01635        0.65473
H         -2.47855       -3.06826        2.34999
H         -2.97252       -0.63122        0.78024
H         -3.61329       -1.07203        2.24284
H         -0.55961       -0.73776        1.94922
H         -0.08037       -2.05730        2.83413
C         -0.92012       -2.50605        0.97084
C         -2.37807       -2.49357        1.42083
N         -0.11194       -1.66493        1.89467
N         -2.78097       -1.11785        1.66812
H          0.86408       -1.55459        1.52611
N         -3.14230        0.23302       -1.00659
C         -4.33152       -0.10400       -1.77278
H         -4.33517       -1.17437       -2.00088
H         -5.22836        0.12596       -1.18946
H         -4.38819        0.45190       -2.72650
C         -3.13926        1.64119       -0.62741
H         -4.04515        1.87142       -0.05838
H         -2.27444        1.84939        0.00589
H         -3.10079        2.30960       -1.50562
C         -1.92960       -0.11068       -1.73883
H         -1.05170        0.09373       -1.12277
H         -1.93361       -1.17623       -1.98924
H         -1.83318        0.46064       -2.67917
