28
2sa1a1dma_41.log	Energy: -999024.4555324
S          2.65690       -0.26425       -0.06370
O          1.91844       -0.68781       -1.25701
O          2.99325        1.15719        0.03392
O          2.01874       -0.78906        1.18318
O          4.07585       -1.05738       -0.19376
H          4.70808       -0.62777        0.39747
S         -2.63012       -0.35779       -0.00733
O         -2.41918       -1.36769        1.04986
O         -2.77868        1.01701        0.53233
O         -1.67526       -0.44791       -1.11305
O         -4.05619       -0.71053       -0.69437
H         -4.73793       -0.69598       -0.00873
N         -0.54117        2.46148        0.10149
C          0.23134        2.06428        1.31041
C          0.13737        2.16514       -1.19233
H         -1.46467        1.95727        0.14934
H          1.21472        2.53200        1.28537
H         -0.33698        2.35931        2.19247
H          0.36658        0.98312        1.30180
H          1.11821        2.63951       -1.19738
H          0.25355        1.08660       -1.28881
H         -0.49344        2.53628       -1.99998
H         -0.74745        3.45810        0.15135
N          0.05682       -2.35565        0.22300
H         -0.86470       -2.19349        0.67435
H          0.02385       -1.91023       -0.70124
H          0.82930       -1.85483        0.74186
H          0.26469       -3.34527        0.12986
