36
2sa1dma1eda_124.log	Energy: -1083081.0016959
S          0.15176       -1.83829       -0.67098
O          0.35070       -0.95458       -1.99563
O         -0.03571       -0.88246        0.43861
O         -1.05465       -2.62714       -0.97140
O          1.38994       -2.63570       -0.48342
H          2.28629       -1.71565        0.54444
S          0.25174        2.14653       -0.36663
O         -1.15515        1.86857       -0.73033
O          0.51593        2.08613        1.07259
O          1.22776        1.42501       -1.21194
O          0.51129        3.68858       -0.81944
H          0.72141       -0.06134       -1.75613
H         -0.04628        4.25253       -0.26666
N          2.98859       -1.13319        1.08471
C          2.33620       -0.43017        2.22169
C          3.64986       -0.21412        0.12113
H          3.67144       -1.80094        1.44113
H          1.63253        0.30124        1.81991
H          1.79790       -1.16449        2.82024
H          3.10695        0.06343        2.81698
H          2.89514        0.47315       -0.26838
H          4.43744        0.33958        0.63482
H          4.06659       -0.80702       -0.69333
H         -4.31232        0.41205        0.31198
H         -4.33284       -1.35777        0.04620
H         -3.76787       -0.97573        2.33370
H         -2.28767       -1.52263        1.52810
H         -2.21156        0.52985        3.06081
H         -1.49032        0.72513        1.61385
H         -3.19961       -0.15149       -1.72119
H         -2.05068        0.43515       -0.68354
C         -3.70452       -0.49448        0.27990
C         -2.99476       -0.68493        1.61516
N         -2.72975       -0.35102       -0.84007
N         -2.38824        0.55898        2.06393
H         -2.18832       -1.23545       -0.96068
