36
2sa1dma1eda_175.log	Energy: -1083072.3456043
S         -2.34453        0.88709       -0.95102
O         -0.96688        1.32461       -0.73896
O         -3.29121        1.81354       -1.49528
O         -2.32553       -0.40524       -1.87006
O         -2.91335        0.34168        0.42668
H         -2.41176       -0.47980        0.66708
S         -0.03608       -2.03908        0.62802
O          0.23433       -1.29497        1.86968
O          0.92041       -1.82097       -0.44958
O          0.11913       -3.61059        0.97250
O         -1.46111       -1.87496        0.20056
H         -0.50541       -3.83751        1.67548
H         -1.87176       -1.13596       -1.38061
N          2.96870        0.06287       -1.49474
C          4.39670        0.23669       -1.74179
C          2.13581        0.46965       -2.62835
H          2.76257       -0.91211       -1.28504
H          4.61444        1.30065       -1.87815
H          4.96622       -0.12253       -0.88112
H          4.74069       -0.29822       -2.63910
H          2.25697        1.54402       -2.80042
H          2.39741       -0.05926       -3.55543
H          1.08670        0.27199       -2.39670
H          2.63582        2.32147        1.72946
H          1.58173        3.06887        0.49648
H          0.74011        3.47773        2.79850
H         -0.41446        2.54184        1.84530
H          0.31459        1.77923        4.24522
H          0.18043        0.61702        3.10053
H          2.19533        0.73672       -0.12824
H          1.44718        0.22301        1.30827
C          1.64437        2.30191        1.27212
C          0.56960        2.50169        2.33536
N          1.46769        0.98525        0.61881
N          0.67990        1.46500        3.35549
H          0.55369        0.95847        0.14106
