36
2sa1dma1eda_76.log	Energy: -1083089.2810119
S         -0.89966       -1.65558       -0.27296
O         -0.48394       -0.92530        0.96330
O         -2.30552       -2.04783       -0.29063
O         -0.81167       -0.54396       -1.44396
O          0.07710       -2.71701       -0.59760
H          1.61332       -2.19940        0.00927
S          1.66609        1.85621       -0.11120
O          2.68870        1.60246        0.90539
O          0.36983        2.34856        0.34009
O          2.21205        3.07755       -1.03670
O          1.55928        0.68399       -1.04645
H          3.14261        2.91092       -1.23617
H          0.05617       -0.06912       -1.38730
N          2.43592       -1.60705        0.26760
C          3.65148       -2.09138       -0.41382
C          2.54978       -1.50934        1.73996
H          2.18592       -0.67421       -0.12312
H          3.89270       -3.09332       -0.05568
H          3.46379       -2.11894       -1.48726
H          4.47544       -1.40946       -0.19892
H          2.81687       -2.48866        2.14109
H          3.30633       -0.76471        1.98645
H          1.58002       -1.19462        2.12285
H         -3.11488       -0.35080        1.52625
H         -3.51155        1.20668        2.28973
H         -5.30590        0.23873        0.71685
H         -4.81704        1.89313        0.31974
H         -3.72016       -0.48649       -1.03330
H         -4.63837        0.72171       -1.70686
H         -1.25813        0.64165        0.94527
H         -2.20518        1.20385       -0.29766
C         -3.31347        0.70680        1.34086
C         -4.47240        0.85310        0.34987
N         -2.07367        1.25648        0.73089
N         -3.98103        0.49729       -0.97192
H         -1.83229        2.21314        0.98073
