33
2sa1ma1eda_186.log	Energy: -1058407.0404820
S         -3.32277        0.36254        0.58331
O         -2.01899        0.67249        1.14551
O         -4.47318        1.15759        0.92163
O         -3.24898        0.24798       -0.96469
O         -3.58182       -1.15987        1.05939
H         -2.37010       -0.19728       -1.27985
H         -4.48917       -1.40721        0.83004
S          0.20832       -0.29914       -1.34558
O          0.31493        1.10226       -1.73055
O         -1.11435       -0.90763       -1.64046
O          1.33248       -1.16020       -1.76606
O          0.35985       -0.36547        0.27859
H          2.27220       -1.72087       -0.54109
H         -0.42590        0.06559        0.68354
N          2.81656       -2.01593        0.31033
H          3.68344       -2.45095        0.00323
C          2.00530       -2.93702        1.13656
H          2.54970       -3.19247        2.04662
H          1.07723       -2.42317        1.38296
H          1.77880       -3.84079        0.57058
H          3.04626       -1.10980        0.85963
H          2.98877        0.94428       -0.95067
H          3.97977        2.39928       -0.96269
H          5.04229        0.64414        0.42673
H          4.59428        2.04562        1.41270
H          3.71998        0.24377        2.58498
H          2.44127        0.80972        1.72119
H          2.35127        3.44941        0.34811
H          1.37647        2.33856       -0.38969
C          3.34516        1.76930       -0.32450
C          4.19155        1.21202        0.82173
N          2.18192        2.45948        0.21842
N          3.34482        0.33141        1.64559
