34
2sa1ma1tma_24.log	Energy: -1048349.4194030
S          2.57083       -0.78791       -0.07007
O          2.82705        0.55369       -0.64992
O          1.62978       -0.74207        1.05784
O          2.26216       -1.81250       -1.08003
O          3.96686       -1.23934        0.62699
H          4.61748       -1.39212       -0.07172
S         -2.74053        0.12819        0.02569
O         -2.24398       -0.51345        1.24541
O         -2.89503        1.58272        0.05351
O         -1.98621       -0.34222       -1.17787
O         -4.24371       -0.48812       -0.13925
H         -4.72808        0.07740       -0.75497
N         -0.39330       -2.29903       -0.17091
H         -0.98133       -1.58802       -0.67517
H          0.43211       -2.51987       -0.74290
C         -1.20605       -3.47056        0.21441
H         -0.58749       -4.17820        0.76626
H         -2.02582       -3.11659        0.83907
H         -1.60147       -3.94183       -0.68496
H         -0.01202       -1.80577        0.64724
N          0.89138        2.33596        0.01550
C          0.14522        2.01275        1.26276
H         -0.26442        1.00774        1.18882
H          0.84167        2.05294        2.10006
H         -0.66761        2.73020        1.38335
C          1.59199        3.63696        0.11949
H          2.26809        3.60905        0.97432
H          2.16478        3.80318       -0.79317
H          0.85340        4.43050        0.24997
C          0.02144        2.27861       -1.19096
H          0.63534        2.49709       -2.06540
H         -0.41459        1.28272       -1.27714
H         -0.78608        3.00407       -1.08350
H          1.63371        1.60837       -0.12965
