36
2sa1dma1eda_87.log	Energy: -1083087.4614415
S         -1.91379        1.85239       -0.35167
O         -3.10948        2.53634       -0.80324
O         -0.69424        2.67609       -0.28154
O         -2.22569        1.38918        1.20910
O         -1.65766        0.52227       -0.96867
H         -2.80312        2.06336        1.59179
H         -0.06020       -0.08328       -1.39461
S          1.11587       -1.56514       -0.34085
O          0.85015       -0.45155       -1.48566
O          2.53599       -1.84463       -0.45489
O          0.71023       -0.88755        0.93402
O          0.20014       -2.69513       -0.61764
H          1.22492        0.68015        1.06427
H         -1.30363       -2.31669        0.00267
N         -2.18805       -1.85331        0.33492
C         -2.24389       -1.90063        1.81059
C         -3.35455       -2.43883       -0.35509
H         -2.07427       -0.87118        0.01576
H         -2.34073       -2.93974        2.12932
H         -1.31491       -1.47562        2.18885
H         -3.09757       -1.31665        2.15641
H         -3.43582       -3.49547       -0.09645
H         -4.25868       -1.90883       -0.05183
H         -3.21038       -2.33107       -1.42994
H          3.42748       -0.04652        1.28765
H          4.37026        1.43735        1.54755
H          3.12107        2.63409       -0.14983
H          2.51724        1.12336       -0.85741
H          1.72201        2.12001        1.80250
H          0.77307        2.15133        0.42141
H          5.73953        0.12081        0.24115
H          4.52440       -0.35552       -0.74379
C          3.89116        0.81455        0.78256
C          2.79973        1.61556        0.07430
N          4.88503        0.43008       -0.20682
N          1.56241        1.66753        0.90461
