39
2sa1eda1tma_113.log	Energy: -1107730.3688496
S         -1.48249        2.09417        0.72270
O         -0.32121        1.29604        1.10632
O         -1.63390        3.40598        1.27961
O         -1.49698        2.22105       -0.86088
O         -2.79511        1.26319        1.02707
H         -2.80691        0.46735        0.43674
S         -1.59691       -1.56723       -1.13503
O         -2.16090       -2.57517       -2.01168
O         -1.20888       -1.96332        0.21952
O         -0.13713       -1.15963       -1.82569
O         -2.33941       -0.27009       -1.12616
H         -0.18061       -1.44575       -2.74764
H         -1.68105        1.32150       -1.23982
H          2.80767       -1.41374        2.14802
H          1.73435       -0.06799        2.63001
H          1.15408       -2.26520        3.76193
H         -0.17488       -1.60373        2.80745
H          0.97402       -4.10289        2.46389
H         -0.06216       -3.35825        1.41485
H          2.11002       -0.25903        0.15044
H          1.26016       -1.74765        0.27259
C          1.78250       -1.03537        2.12555
C          0.82216       -2.05393        2.74107
N          1.40620       -0.83212        0.70914
N          0.81132       -3.26451        1.92380
H          0.51263       -0.32467        0.66412
N          3.04087        0.80615       -0.83307
C          2.02198        1.72272       -1.35090
H          1.24300        1.14968       -1.86062
H          1.55516        2.25710       -0.52106
H          2.45010        2.45412       -2.05444
C          4.04467        1.52171       -0.04993
H          3.55902        2.04110        0.78070
H          4.77046        0.81199        0.35780
H          4.58742        2.26514       -0.65599
C          3.65537        0.04089       -1.91407
H          4.37642       -0.67197       -1.50355
H          2.88223       -0.51715       -2.44927
H          4.17872        0.69180       -2.63316
