30
2sa1a1eda_23.log	Energy: -1033766.0576015
S         -2.35206       -1.13291        0.03179
O         -2.04377       -2.30191        0.86189
O         -2.94869        0.00459        0.73033
O         -1.20270       -0.75166       -0.84677
O         -3.43807       -1.61791       -1.08034
H         -4.24001       -1.89097       -0.61402
S          2.95800       -0.09507       -0.02337
O          3.12828       -1.32447       -0.80666
O          2.73787        1.11939       -0.83623
O          1.96498       -0.22966        1.06803
O          4.34347        0.14971        0.78555
H          5.05577        0.25188        0.13959
H         -0.04249        3.73349       -0.62865
H         -0.69569        2.72470       -1.94190
H         -2.48617        3.87781       -0.48963
H         -2.65179        2.12346       -0.61401
H         -2.17042        3.58528        1.75394
H         -2.42912        1.96101        1.55359
H          1.07455        1.61350       -0.54837
H         -0.00583        1.75228        0.73734
C         -0.63737        2.84614       -0.85864
C         -2.02478        2.92476       -0.21176
N          0.06979        1.67943       -0.28554
N         -1.89623        2.76354        1.23376
H         -0.39672        0.78732       -0.54827
N          0.70430       -2.46811        0.16896
H          0.09501       -1.93578       -0.48385
H          0.09488       -3.10527        0.68107
H          1.47164       -2.91909       -0.32776
H          1.12826       -1.74597        0.79204
