33
2sa1ma1eda_139.log	Energy: -1058409.7485367
S         -0.18199        2.18148       -0.45343
O          0.73417        1.36372       -1.26256
O         -1.62074        1.93219       -0.73364
O          0.13505        2.21017        0.97673
O          0.06978        3.67446       -1.03469
H         -0.58903        4.26329       -0.64199
S         -2.18729       -1.42074       -0.04496
O         -3.09912       -2.43969        0.41035
O         -0.91782       -1.20243        0.61799
O         -1.75544       -1.76013       -1.56779
O         -2.98303       -0.09492       -0.18221
H         -2.54246       -2.02489       -2.06501
H         -2.37793        0.71919       -0.38658
N          0.84368       -0.16806        2.67389
H          0.38302        0.68201        2.34396
C          1.44947        0.03830        3.98981
H          0.72733        0.33286        4.76110
H          1.94486       -0.88017        4.31659
H          2.20780        0.82248        3.91910
H          0.12169       -0.88221        2.70086
H          2.39159       -2.49767        0.25213
H          0.97683       -1.87720       -0.62050
H          2.74754       -2.63106       -2.22815
H          2.45047       -0.89432       -2.35607
H          4.78024       -2.14614       -1.11016
H          4.71779       -0.89573       -2.16294
H          1.73934       -0.40765        1.26089
H          3.16725       -0.17768        0.30427
C          2.03550       -1.71249       -0.42186
C          2.85817       -1.67308       -1.70401
N          2.17222       -0.41521        0.27482
N          4.24411       -1.32859       -1.37971
H          1.68043        0.32291       -0.27335
