33
2sa1ma1eda_156.log	Energy: -1058409.8756890
S         -2.35889        0.87970       -0.48125
O         -3.57644        1.50257       -0.95608
O         -1.07587        1.51039       -0.76968
O         -2.43281        0.68233        1.06536
O         -2.36315       -0.58519       -1.06492
H         -3.43323        0.44410        1.32765
H         -1.46726       -1.03664       -0.94844
S          1.22819       -1.12253       -0.48607
O          2.42826       -1.81613       -0.93339
O         -0.05841       -1.73961       -0.85462
O          1.26927       -0.78296        0.97219
O          1.29994        0.29990       -1.24838
H          2.63467       -0.38826        1.44627
H          0.46183        0.79680       -1.08929
N         -4.90767        0.11311        1.47176
H         -5.29804        0.25928        2.39739
C         -5.15586       -1.25897        0.99787
H         -6.22203       -1.49614        0.92298
H         -4.69189       -1.37793        0.01684
H         -4.67969       -1.96277        1.68322
H         -5.33957        0.78788        0.84401
H          5.64253       -0.30342        1.21585
H          4.47816       -1.29835        0.27832
H          5.32465        0.71559       -1.01677
H          3.57247        0.66266       -0.82622
H          5.39219        2.50301        0.50603
H          3.87270        2.74722       -0.05534
H          3.82768       -0.60582        2.65139
H          3.63073        0.91593        1.96926
C          4.65827       -0.32647        0.73912
C          4.51233        0.79807       -0.28628
N          3.62940       -0.09988        1.79212
N          4.47408        2.08334        0.41695
