26
2sa1eda_17.log	Energy: -998260.3583551
S          0.66229        1.83885       -0.00104
O         -0.18005        1.74000       -1.20776
O         -0.06690        1.42277        1.22625
O          1.98141        1.20410       -0.09253
O          1.01316        3.40108        0.16344
H          0.21290        3.91951       -0.00080
S         -2.25306       -0.79943       -0.08882
O         -3.43603       -1.60477       -0.12706
O         -0.95551       -1.44190        0.15774
O         -2.15776       -0.01091       -1.44801
O         -2.44589        0.32416        1.00253
H         -1.38942        0.62699       -1.43418
H         -1.58359        0.81316        1.14534
H          3.04165       -2.58103        1.29828
H          1.38229       -3.23018        1.10182
H          2.57474       -3.34360       -1.02336
H          1.26942       -2.16622       -1.15854
H          3.76784       -1.62551       -1.87472
H          2.88294       -0.44047       -1.16465
H          1.51512       -1.08918        2.34700
H          1.97815       -0.31986        0.94340
C          2.07258       -2.43258        0.81891
C          2.24776       -2.35333       -0.69391
N          1.49611       -1.15393        1.33112
N          3.26866       -1.37122       -1.03260
H          0.50556       -1.07889        1.02172
