33
2sa1ma1eda_146.log	Energy: -1058410.7549992
S         -0.62761        2.07172       -0.08623
O         -1.04548        1.24633       -1.22305
O         -1.43380        1.92820        1.13078
O          0.83090        1.96414        0.21257
O         -0.85096        3.58171       -0.63062
H         -0.65002        4.19660        0.08807
S          2.56682       -0.83028       -0.65674
O          3.68947       -1.45745       -1.30365
O          1.24710       -1.41795       -0.70296
O          2.87428       -0.74296        0.94148
O          2.54680        0.66554       -1.08005
H          3.78636       -0.44537        1.06933
H          1.79526        1.19871       -0.61391
N         -0.04873       -0.57662        2.28394
H          0.93709       -0.49785        2.04480
C         -0.22007       -1.29345        3.54847
H          0.26288       -0.80160        4.40200
H         -1.28639       -1.39057        3.77115
H          0.19625       -2.29974        3.45296
H         -0.41023        0.37515        2.34264
H         -3.16210       -1.72563        1.02616
H         -2.96871       -0.01110        0.58786
H         -4.69626       -1.09847       -0.86337
H         -3.29804       -0.56554       -1.80043
H         -3.94026       -3.33101       -1.09747
H         -3.46454       -2.71486       -2.53628
H         -0.83162       -1.14287        0.87625
H         -1.26734       -2.17353       -0.45336
C         -2.85033       -1.03757        0.23428
C         -3.63104       -1.28842       -1.04927
N         -1.41172       -1.25965       -0.01994
N         -3.34228       -2.63829       -1.53425
H         -1.06845       -0.53717       -0.67397
