34
2sa1ma1tma_22.log	Energy: -1048352.7570506
S         -2.20918       -0.89306       -0.22240
O         -1.17961       -1.91006       -0.40380
O         -2.54158       -0.55337        1.17117
O         -1.99836        0.34132       -1.03658
O         -3.52780       -1.59992       -0.85990
H         -4.26579       -0.97946       -0.79716
S          1.52035        1.45089       -0.51607
O          2.03706        2.74225       -0.10116
O          2.40039        0.57140       -1.28630
O          0.90302        0.67069        0.63547
O          0.24141        1.82794       -1.43307
H         -0.47601        1.47169        1.15189
H         -0.38437        1.07217       -1.49930
N         -1.38701        1.99933        1.14453
H         -1.78920        1.73841        0.22801
C         -1.16907        3.45315        1.30146
H         -2.11728        3.97980        1.19535
H         -0.73950        3.64559        2.28403
H         -0.46555        3.77294        0.53265
H         -2.00092        1.57167        1.83841
N          1.81207       -1.90685        0.48025
C          1.10709       -2.73711        1.48900
H          1.11607       -2.20692        2.44210
H          0.07989       -2.87945        1.15464
H          1.62706       -3.69270        1.58792
C          1.79347       -2.52953       -0.87083
H          0.75606       -2.70938       -1.14742
H          2.24763       -1.82546       -1.56754
H          2.35790       -3.46426       -0.83049
C          3.19602       -1.57449        0.90407
H          3.63209       -0.91594        0.15304
H          3.15211       -1.05538        1.86181
H          3.76888       -2.49949        0.99959
H          1.30554       -0.99043        0.42573
