30
2sa1a1eda_139.log	Energy: -1033754.1931043
S         -0.58186        1.97626       -0.15522
O         -1.25348        1.92261        1.14858
O          0.90046        2.02935       -0.01306
O         -1.04104        0.98254       -1.13142
O         -0.99561        3.38278       -0.84680
H         -0.71369        4.10160       -0.26471
S          2.53011       -0.96450       -0.36170
O          3.60598       -1.74022       -0.92057
O          1.18754       -1.49338       -0.27359
O          2.88930       -0.62429        1.18991
O          2.55540        0.43659       -1.03395
H          3.81317       -0.34167        1.24611
H          1.82893        1.06983       -0.66640
H         -3.22322       -1.57478        1.52141
H         -2.96264        0.06739        0.88384
H         -4.75486       -1.11730       -0.41507
H         -3.35171       -0.73798       -1.41899
H         -4.07051       -3.38567       -0.40315
H         -3.60089       -2.94949       -1.90869
H         -0.88259       -1.15309        1.28190
H         -1.37774       -2.26599        0.06010
C         -2.89393       -0.99747        0.65216
C         -3.69884       -1.36130       -0.58919
N         -1.46949       -1.31024        0.41127
N         -3.45936       -2.76580       -0.92320
H         -1.09961       -0.66626       -0.30944
N         -0.01011       -0.43706        2.62772
H         -0.12771       -0.69988        3.60015
H         -0.28863        0.53900        2.51938
H          0.98069       -0.49737        2.40322
