30
2sa1a1eda_152.log	Energy: -1033752.5691035
S          0.84579        0.84974        0.07656
O         -0.42382        1.58494       -0.06799
O          1.97824        1.46680       -0.65534
O          1.20040        0.52229        1.46978
O          0.66287       -0.55431       -0.69604
H         -0.18913       -0.96605       -0.41492
S         -2.96780       -0.68878        0.25697
O         -4.11286       -1.21767        0.96328
O         -1.74142       -1.47238        0.18983
O         -3.35756       -0.35883       -1.22909
O         -2.66619        0.71813        0.89609
H         -4.29180        0.07200       -1.22922
H         -1.78833        1.08567        0.55717
H          4.31257       -1.70288        0.96548
H          2.99202       -1.28642       -0.15663
H          5.09976       -1.87561       -1.40672
H          4.59680       -0.20824       -1.69292
H          6.83018       -1.05776       -0.00502
H          6.78233        0.12177       -1.13512
H          3.24425        0.32943        1.64709
H          4.80299        0.70200        1.02653
C          3.98215       -0.99542        0.20042
C          4.99213       -0.89142       -0.93481
N          3.86423        0.34593        0.82849
N          6.24285       -0.33734       -0.41141
H          3.33535        0.97889        0.16487
N         -5.77247        0.66546       -0.94777
H         -5.75666        1.65386       -0.71716
H         -6.05303        0.15316       -0.11453
H         -6.47045        0.51577       -1.66841
