28
2sa1a1dma_74.log	Energy: -998996.3178823
S         -2.28728       -0.74396        0.09604
O         -1.44932        0.06087       -0.78063
O         -3.71706       -0.72296       -0.02508
O         -1.82286       -2.23648        0.05485
O         -1.86783       -0.25572        1.56600
H         -0.82615       -2.31162       -0.05363
H         -2.53531       -0.54739        2.20457
S          1.71375       -1.27459       -0.35566
O          0.75767       -2.37903       -0.30586
O          3.08478       -1.53812       -0.70931
O          1.19094       -0.20121       -1.40460
O          1.61095       -0.54642        1.01559
H          0.22890       -0.04099       -1.25681
H          2.38889        0.16656        1.10906
N         -0.86460        3.11481        0.00213
C          0.37324        2.62400        0.57294
C         -0.65713        4.14876       -0.99549
H         -1.37468        2.33753       -0.40255
H          0.84162        3.41907        1.16763
H          0.16601        1.77932        1.23474
H          1.10472        2.29109       -0.18932
H         -0.23875        5.04165       -0.51698
H          0.03163        3.84906       -1.80670
H         -1.61443        4.42874       -1.44226
N          3.55989        1.13502        1.13929
H          4.00841        1.20926        2.04720
H          3.29091        2.06791        0.83960
H          4.24284        0.77392        0.47716
