36
2sa1dma1eda_173.log	Energy: -1083072.8665251
S          0.01421        0.21967       -0.95275
O         -1.21818        0.12051       -1.73361
O          1.21286        0.56689       -1.74947
O         -0.12195        1.06272        0.25777
O          0.25574       -1.28829       -0.41815
H         -1.80128        1.25968        0.61482
H          1.17143       -1.35395       -0.06561
S          3.84960       -0.19395        0.33995
O          5.25251       -0.49838        0.43872
O          2.84873       -1.23576        0.49150
O          3.47185        0.86799        1.49250
O          3.61738        0.60074       -0.97747
H          4.18682        1.51646        1.56385
H          2.62758        0.61467       -1.25770
N         -2.82004        1.48156        0.57603
C         -3.00762        2.57869       -0.39265
C         -3.33970        1.75336        1.92557
H         -3.28105        0.60915        0.17965
H         -2.50491        3.47749       -0.03199
H         -2.56767        2.26598       -1.34022
H         -4.07498        2.77344       -0.51706
H         -2.83229        2.62184        2.34962
H         -4.41291        1.94700        1.86762
H         -3.15407        0.86993        2.53525
H         -1.96726       -2.37529       -0.33285
H         -2.79406       -3.37986        0.85224
H         -4.38812       -2.75971       -0.80299
H         -4.80972       -1.87554        0.67258
H         -3.20232       -0.67466       -1.48231
H         -4.82474       -0.46821       -1.32080
H         -2.45563       -1.75683        2.42098
H         -1.24783       -1.29195        1.42204
C         -2.71260       -2.35403        0.46798
C         -4.06111       -1.95881       -0.12441
N         -2.25467       -1.40791        1.49052
N         -3.97005       -0.66190       -0.80875
