37
2sa1dma1tma_60.log	Energy: -1072992.5709499
S         -0.37756       -1.58899        0.33080
O         -0.77015       -0.59102       -0.70959
O          0.48188       -0.94156        1.36297
O         -1.50655       -2.33064        0.87292
O          0.53491       -2.66690       -0.40980
H          1.34422       -2.21180       -0.72973
S          3.19254        0.16559       -0.39007
O          3.80638        1.25222       -1.10913
O          2.64891       -0.98226       -1.09019
O          4.28547       -0.47201        0.60816
O          2.13173        0.77067        0.57805
H          4.83490        0.24020        0.96552
H          1.46209        0.05482        0.92172
N         -0.96916        2.27407        0.26342
C         -0.56732        2.36915        1.66237
C         -0.56357        3.44431       -0.50427
H         -0.53357        1.44809       -0.14119
H         -1.15140        3.15035        2.16317
H         -0.75475        1.41560        2.16436
H          0.50063        2.60727        1.78749
H         -1.10228        4.32792       -0.14327
H          0.51605        3.65177       -0.43501
H         -0.81468        3.30050       -1.55960
N         -3.35959        0.00156       -0.43520
C         -3.72449        1.18018       -1.25664
H         -3.12586        2.02163       -0.90175
H         -3.49287        0.96735       -2.30103
H         -4.79299        1.37829       -1.14362
C         -4.02871       -1.24420       -0.88419
H         -3.79763       -1.40643       -1.93741
H         -3.63414       -2.07172       -0.29357
H         -5.10741       -1.14114       -0.74680
C         -3.58084        0.25459        1.01215
H         -3.20256       -0.60376        1.56870
H         -3.02536        1.15473        1.27699
H         -4.65027        0.39141        1.18907
H         -2.32172       -0.16232       -0.55696
