39
2sa1eda1tma_87.log	Energy: -1107742.4624882
S         -1.14467        1.42858       -0.33993
O         -1.14217        1.04684        1.08301
O         -0.34922        2.62595       -0.66903
O         -0.45540        0.23311       -1.15562
O         -2.52795        1.47634       -0.88984
H         -3.19422        0.15278       -0.30079
S          2.09658       -1.85472       -0.02909
O          2.64070       -0.91233       -1.03483
O          2.86343       -1.92053        1.21261
O          0.63001       -1.72651        0.12570
O          2.22783       -3.33401       -0.71044
H         -0.01201       -0.45562       -0.56918
H          3.13615       -3.63230       -0.57111
H          4.03608        1.87618        0.00704
H          3.28162        3.46113       -0.30107
H          2.98894        2.67416        2.08982
H          1.46534        2.98803        1.24893
H          2.47539        0.32188        1.92055
H          0.90610        0.90647        1.84778
H          2.64757        1.97328       -2.03490
H          2.26401        0.74636       -0.97427
C          3.08818        2.41875       -0.03513
C          2.32548        2.31320        1.29042
N          2.27121        1.78896       -1.10799
N          1.84084        0.96514        1.46452
H          1.28426        2.12859       -1.06241
N         -3.63760       -0.70459        0.15720
C         -4.77422       -1.10524       -0.70120
H         -5.46515       -0.26634       -0.79050
H         -4.39167       -1.36718       -1.68796
H         -5.28142       -1.96439       -0.25621
C         -2.60327       -1.77186        0.24194
H         -2.20640       -1.96294       -0.75471
H         -1.79053       -1.42857        0.88135
H         -3.06039       -2.67515        0.65262
C         -4.07262       -0.26434        1.50581
H         -3.19774        0.13107        2.02263
H         -4.81667        0.52521        1.39485
H         -4.49991       -1.11481        2.04225
