31
2sa1ma1dma_83.log	Energy: -1023671.0566118
S          2.65885        0.33590        0.18839
O          3.99239        0.80313        0.46125
O          1.68230        0.22062        1.25943
O          1.96279        1.37163       -0.84142
O          2.75366       -0.98027       -0.62355
H          2.60214        1.59032       -1.53452
H          1.88111       -1.55093       -0.60364
S         -0.62609       -1.84513       -0.22088
O         -1.74791       -2.76232       -0.28007
O          0.70898       -2.42039       -0.51941
O         -0.83804       -0.58106       -0.98500
O         -0.57167       -1.38939        1.33496
H         -2.37350       -0.09802       -0.77817
H          0.24258       -0.85923        1.46555
N         -3.25565        0.36571       -0.42048
H         -2.93977        1.37080       -0.22436
C         -3.71070       -0.31744        0.81470
H         -4.59876        0.17996        1.20585
H         -3.91360       -1.36503        0.59445
H         -2.89938       -0.27438        1.54119
H         -3.96556        0.34727       -1.14825
N         -1.94255        2.74066        0.04529
C         -1.22691        2.91785       -1.22445
C         -1.02875        2.35920        1.13057
H         -2.40964        3.60871        0.29012
H         -0.75990        1.96741       -1.49866
H         -1.93246        3.21154       -2.00659
H         -0.43592        3.67661       -1.15605
H         -0.56196        1.40385        0.88074
H         -0.22624        3.09307        1.28066
H         -1.58760        2.24783        2.06332
