21
2sa1ma_33.log	Energy: -938832.3045715
S          1.75832       -0.93824       -0.11873
O          3.18323       -0.85160       -0.25771
O          0.87041       -0.60303       -1.21755
O          1.33960       -2.43549        0.26764
O          1.36282       -0.10994        1.15861
H          2.00947       -2.81916        0.85362
H          0.38050        0.04998        1.19004
S         -2.27337        0.06305        0.09020
O         -3.52304        0.76366        0.12181
O         -1.25740        0.28540        1.10490
O         -2.53129       -1.51863        0.15497
O         -1.65198        0.26789       -1.33946
H         -3.33294       -1.73707       -0.34390
H         -0.71382       -0.05639       -1.36219
N          2.26465        2.92393        0.18915
H          2.81931        2.93940       -0.65877
C          0.83843        2.95491       -0.11010
H          0.48084        2.14428       -0.76477
H          0.27216        2.90894        0.82442
H          0.58967        3.90405       -0.59305
H          2.51366        2.08603        0.70194
