34
2sa1ma1tma_02.log	Energy: -1048357.4867526
S         -1.03880       -1.82855        0.19425
O         -2.39058       -1.76530        0.79437
O         -0.01401       -1.13583        1.03307
O         -0.60499       -3.14137       -0.25097
O         -1.18466       -0.88501       -1.12050
H         -0.47864       -0.18417       -1.12603
S          0.29306        2.08808        0.03554
O         -1.15645        2.37062       -0.04143
O          0.66123        1.00331       -0.95064
O          1.17599        3.23236       -0.00447
O          0.55319        1.39575        1.46971
H          0.19918        0.46685        1.43354
N         -3.29248        0.74075        0.33524
H         -2.43010        1.33169        0.23484
H         -2.98997       -0.23220        0.61288
C         -4.02041        0.69024       -0.95483
H         -4.93556        0.11131       -0.83301
H         -4.24976        1.70421       -1.28167
H         -3.36713        0.20039       -1.67533
H         -3.86153        1.13816        1.07937
N          2.70941       -0.61186       -0.19976
C          2.57588       -1.90589       -0.91856
H          1.76968       -2.48307       -0.46250
H          2.32876       -1.70137       -1.96075
H          3.52420       -2.44394       -0.85592
C          3.70750        0.28912       -0.82922
H          3.43443        0.43959       -1.87323
H          3.68105        1.25023       -0.31481
H          4.69796       -0.16394       -0.75250
C          2.98065       -0.80989        1.24740
H          2.96067        0.16295        1.73866
H          2.19242       -1.44026        1.65600
H          3.96048       -1.27940        1.35912
H          1.79787       -0.10944       -0.30551
