33
2sa1ma1eda_195.log	Energy: -1058407.4104678
S         -0.04039       -1.30950       -0.11673
O          1.11616       -2.17293       -0.29402
O         -1.18769       -1.92365        0.59111
O          0.27792        0.03069        0.45208
O         -0.54489       -1.01180       -1.62622
H          1.19959        0.97022       -0.47836
H         -1.40643       -0.54336       -1.56701
S         -3.52537        0.58470        0.16873
O         -2.86498        0.38667       -1.11047
O         -4.91854        0.94069        0.22924
O         -3.29367       -0.63257        1.10608
O         -2.66713        1.76497        0.85887
H         -2.40928       -1.13102        0.91387
H         -3.12627        2.05174        1.66126
N          1.84361        1.51055       -1.12304
H          1.36220        2.36010       -1.40917
C          2.20405        0.65907       -2.28582
H          2.80453        1.23820       -2.98845
H          2.78125       -0.18433       -1.90402
H          1.29530        0.28932       -2.75884
H          2.72546        1.74953       -0.58519
H          5.42707        0.79375        1.74140
H          4.00752        1.75180        2.18847
H          3.63881       -0.71599        2.41833
H          2.48150        0.05280        1.34273
H          4.67344       -1.67375        0.52875
H          3.09554       -1.67338        0.07765
H          4.95487        2.49947        0.09836
H          4.74937        0.99737       -0.53625
C          4.39666        1.04472        1.44936
C          3.53633       -0.21832        1.44368
N          4.36157        1.67605        0.11838
N          3.88598       -1.07303        0.30861
