30
2sa1a1eda_126.log	Energy: -1033756.8030354
S         -0.68442       -1.34106       -0.30779
O          0.80486       -1.43847       -0.10560
O         -1.37148       -1.03908        0.95283
O         -1.02468       -0.41257       -1.40816
O         -1.13358       -2.75985       -0.82701
H         -0.62792       -3.47890       -0.30625
S          2.47656        1.21301        0.10856
O          1.22487        1.94256       -0.04416
O          3.70496        1.93348        0.27130
O          2.32395        0.20949        1.33095
O          2.64347        0.22996       -1.12920
H          1.62237       -0.45127        1.09603
H          1.91620       -0.44083       -1.09481
H         -3.03810        3.38332       -0.36424
H         -3.06748        2.24474       -1.74023
H         -4.67150        1.61886        0.16809
H         -3.50987        0.35804       -0.25743
H         -3.71862        1.65370        2.24130
H         -2.66727        0.45490        1.77867
H         -0.75444        2.78048       -0.84006
H         -1.24449        2.01391        0.54590
C         -2.83815        2.35621       -0.67883
C         -3.61033        1.35279        0.18764
N         -1.39773        2.08330       -0.47041
N         -3.05583        1.36168        1.53705
H         -1.13845        1.14620       -0.87743
N          0.39323       -4.44512        0.54293
H          0.10152       -4.60370        1.50195
H          1.23001       -3.86693        0.56035
H          0.62811       -5.34077        0.12859
