30
2sa1a1eda_17.log	Energy: -1033766.4291499
S         -2.50149       -0.88036        0.14298
O         -2.09433       -2.01004        0.98549
O         -2.60275        0.40720        0.86183
O         -1.72531       -0.78615       -1.11469
O         -4.00190       -1.19424       -0.39431
H         -4.59574       -1.21509        0.36851
S          2.70852       -0.48416        0.00394
O          2.67569       -1.57223       -1.00173
O          2.96570        0.84524       -0.54410
O          1.54468       -0.56039        0.91802
O          3.94814       -0.83146        0.99834
H          4.77123       -0.67723        0.51512
H          0.97320        2.15103       -0.90279
H         -0.53571        1.26303       -1.23101
H         -0.77814        3.71124       -1.78897
H         -1.88949        3.19913       -0.51374
H          0.57987        4.72503       -0.10140
H         -0.93437        5.07486        0.41275
H          0.56601        0.85232        0.96851
H          0.07104        2.43665        1.37393
C         -0.07963        2.05030       -0.62805
C         -0.83349        3.36752       -0.74817
N         -0.12406        1.61446        0.79363
N         -0.28970        4.31664        0.22574
H         -1.07184        1.24244        1.01067
N          0.20771       -2.67531       -0.64274
H          1.19008       -2.36828       -0.84769
H          0.01801       -3.61122       -0.98890
H          0.04283       -2.63781        0.36658
H         -0.47795       -1.99455       -1.04209
