26
2sa1eda_19.log	Energy: -998258.5329991
S         -0.45871        1.88218       -0.00524
O         -1.12740        1.21980       -1.13738
O         -0.99922        1.57131        1.31495
O          1.02843        1.73250       -0.06018
O         -0.73673        3.44482       -0.30679
H         -0.33161        3.97035        0.39714
S          2.46058       -1.05195        0.02015
O          3.61226       -1.90140       -0.01990
O          1.13800       -1.65525        0.17631
O          2.65913        0.00858        1.18016
O          2.45248       -0.15654       -1.28970
H          1.98976        0.72883        1.06896
H          1.85281        0.61936       -1.14244
H         -2.04059       -2.40065        1.20412
H         -1.71749       -0.65337        1.37689
H         -4.18852       -1.13682        1.45852
H         -3.74379       -0.10554        0.09698
H         -4.45807       -2.93837       -0.06382
H         -4.97107       -1.69131       -0.98773
H         -0.51402       -1.74466       -0.47581
H         -2.04316       -1.99406       -1.20945
C         -2.18250       -1.41636        0.75063
C         -3.65529       -1.11894        0.50051
N         -1.48942       -1.42026       -0.56519
N         -4.17078       -2.06481       -0.49213
H         -1.43166       -0.44054       -0.92729
