30
2sa1a1eda_128.log	Energy: -1033756.5972060
S         -1.08000       -1.74814       -0.36629
O         -1.82334       -1.56167        0.87946
O         -1.25788       -0.70261       -1.38095
O          0.35643       -2.07885       -0.11789
O         -1.68559       -3.05615       -1.10313
H         -1.61598       -3.80647       -0.49666
S          2.55278        0.07035        0.37776
O          3.88843        0.51485        0.65063
O          1.49540        1.05841        0.19216
O          2.59816       -0.86102       -0.90749
O          2.11582       -0.92871        1.52886
H          1.73762       -1.34641       -0.96909
H          1.30894       -1.41650        1.22662
H         -2.50824        3.36141        0.15856
H         -2.95931        2.37960       -1.25672
H         -4.27700        1.79656        0.85734
H         -3.40370        0.43061        0.15628
H         -2.94680        1.58213        2.71148
H         -2.31638        0.20334        2.04255
H         -0.46625        2.56676       -0.81433
H         -0.79059        1.71160        0.60350
C         -2.52305        2.34995       -0.25618
C         -3.27815        1.38893        0.66884
N         -1.12277        1.88748       -0.35439
N         -2.50654        1.18882        1.89118
H         -1.06987        0.97193       -0.84117
N          0.94280        3.50625       -1.44737
H          1.11598        4.46544       -1.16534
H          1.10994        3.44706       -2.44689
H          1.63068        2.91241       -0.98486
