36
2sa1dma1eda_192.log	Energy: -1083072.8675604
S         -1.62778       -1.45382       -0.19810
O         -2.84835       -2.25934       -0.16332
O         -0.35979       -2.18209       -0.35096
O         -1.75063       -0.32887       -1.18486
O         -1.59878       -0.74736        1.24782
H         -3.23696       -0.02822       -1.22993
H         -0.74368       -0.25304        1.36688
S          1.96648        0.21696        0.83073
O          3.19933        0.46489        1.57747
O          0.70778        0.54578        1.51570
O          2.02473        0.84306       -0.53693
O          1.98527       -1.36388        0.57542
H          3.39799        0.74657       -1.02961
H          1.11459       -1.67043        0.19817
N          4.46519        0.65056       -1.29709
C          4.89708       -0.72763       -0.95595
C          5.20912        1.70452       -0.56811
H          4.54192        0.79683       -2.30206
H          4.74777       -0.86645        0.11517
H          4.26600       -1.43473       -1.49371
H          5.94687       -0.86437       -1.22335
H          5.00206        1.56930        0.49439
H          6.27800        1.61757       -0.77415
H          4.83827        2.67885       -0.88718
H         -5.55651        0.65371        0.54846
H         -4.03749       -0.17205        1.00301
H         -3.91248        2.28111        1.51865
H         -2.71991        1.77981        0.31894
H         -5.13070        3.34692       -0.19109
H         -3.62381        3.53119       -0.79773
H         -4.75207       -0.77098       -1.23383
H         -4.64497        0.86081       -1.67897
C         -4.48382        0.57695        0.34777
C         -3.79039        1.92534        0.48885
N         -4.30077        0.12461       -1.05748
N         -4.31621        2.84409       -0.52575
