26
2sa1eda_107.log	Energy: -998228.1397537
S          2.07913       -0.82515       -0.01893
O          2.93291        0.21736        0.49063
O          1.16020       -0.58241       -1.11766
O          3.00786       -2.02223       -0.52971
O          1.31365       -1.49607        1.17588
H          3.85745       -1.98226       -0.06640
H          0.33725       -1.55413        0.99022
S         -2.18459       -0.71173        0.02132
O         -2.89604        0.25749        0.81663
O         -1.27856       -1.66122        0.64773
O         -3.26165       -1.60055       -0.75204
O         -1.46520       -0.02126       -1.18953
H         -4.11189       -1.13703       -0.74551
H         -0.47947       -0.07626       -1.08102
H          1.50739        3.41102        0.25735
H          0.16606        4.35083       -0.36897
H         -0.54620        3.38042        1.67881
H         -1.43498        2.57128        0.38145
H          0.95045        1.42776        1.64748
H         -0.58662        1.00581        1.98148
H          1.07528        1.74512       -1.36691
H         -0.25018        2.53336       -1.92052
C          0.50820        3.32504       -0.18850
C         -0.44122        2.68715        0.82897
N          0.65211        2.65963       -1.47373
N          0.01870        1.35639        1.24457
