31
2sa1a1tma_24.log	Energy: -1023683.1420426
S          2.43769       -0.94151        0.12190
O          3.79311       -1.27032        0.45761
O          2.07066        0.45060       -0.10070
O          2.02385       -1.78960       -1.15327
O          1.48847       -1.52857        1.25518
H          0.56722       -1.57004        0.88092
S         -1.56348       -0.61215       -0.71470
O         -0.93694        0.53438       -1.39925
O         -2.77874       -1.13780       -1.31890
O         -0.55557       -1.67867       -0.40622
O         -1.96012       -0.00244        0.73022
H          1.03878       -1.75741       -1.24249
H         -2.63083       -0.63627        1.15588
N         -3.75479       -1.83420        1.48572
H         -3.99924       -2.05208        0.52074
H         -4.60378       -1.59884        1.98815
H         -3.36165       -2.67193        1.90261
N         -0.01005        2.54816        0.11359
C          1.08842        3.30877       -0.53169
H          2.01194        2.74318       -0.41966
H          0.85666        3.42459       -1.59070
H          1.17038        4.28803       -0.05456
C         -1.32615        3.21328       -0.06232
H         -1.51494        3.33798       -1.12801
H         -2.09296        2.56687        0.36389
H         -1.30585        4.18222        0.44124
C          0.26830        2.27010        1.54678
H         -0.51919        1.61620        1.92081
H          1.22961        1.76476        1.61751
H          0.28152        3.21734        2.09077
H         -0.10259        1.63294       -0.39144
