21
2sa1ma_16.log	Energy: -938858.7502301
S         -2.18340       -0.67905       -0.11865
O         -2.77106        0.55737       -0.68397
O         -2.93806       -1.89700       -0.32301
O         -0.73409       -0.72034       -0.45631
O         -2.13036       -0.43151        1.50301
H         -2.88706       -0.88810        1.89435
S          2.44485       -0.20899        0.10108
O          3.67485       -0.31223        0.83795
O          1.82256        1.08809       -0.11565
O          2.66619       -0.76556       -1.39378
O          1.42653       -1.21229        0.71793
H          3.18456       -1.58276       -1.35661
H          0.49432       -1.09723        0.30508
N         -0.65183        2.20742       -0.70771
H         -1.51934        1.63060       -0.87775
H          0.15959        1.56716       -0.73360
C         -0.73108        2.81867        0.64276
H          0.20838        3.32237        0.86557
H         -1.56549        3.51840        0.67109
H         -0.90117        2.01637        1.36032
H         -0.54034        2.90574       -1.43917
