33
2sa1ma1eda_158.log	Energy: -1058413.0786856
S         -2.32915       -1.03022       -0.09834
O         -1.64655       -2.33560       -0.24934
O         -3.76845       -1.07216        0.05023
O         -1.80521       -0.43151        1.33781
O         -1.83937       -0.03530       -1.09536
H         -0.84365       -0.61741        1.40450
H         -2.18972        1.42651       -0.48180
S          1.67278       -1.50249        0.11052
O          3.00907       -1.90802        0.47677
O          0.92240       -0.73273        1.12184
O          1.72312       -0.64009       -1.20913
O          0.84323       -2.72349       -0.33879
H          2.40343        0.12318       -1.08471
H         -0.17392       -2.53935       -0.34052
N         -2.16160        2.26440        0.16972
H         -2.44835        1.88764        1.07482
C         -2.99429        3.39494       -0.27899
H         -2.94534        4.20618        0.44781
H         -2.62096        3.74451       -1.24152
H         -4.02551        3.06108       -0.39244
H         -1.12836        2.47354        0.21865
H          1.94542        3.60061       -0.48469
H          1.66941        3.40658        1.23878
H          3.92478        2.73061        0.76700
H          2.99132        1.31402        1.27246
H          3.64508        1.92878       -1.52776
H          4.31390        0.76146       -0.60167
H          0.65244        1.68955       -0.92061
H          0.62800        1.22433        0.61078
C          1.82753        2.85187        0.30801
C          3.11882        2.04711        0.46927
N          0.62631        2.06305        0.02600
N          3.46184        1.29675       -0.75226
