24
2sa1dma_12.log	Energy: -963522.6810503
S          2.14256       -0.83214       -0.14226
O          0.79801       -0.75956        0.52577
O          2.26267       -1.91383       -1.10042
O          2.54893        0.51812       -0.57338
O          3.17687       -1.14910        1.06826
H          3.26702       -2.10943        1.13327
S         -2.43080       -0.53156       -0.14492
O         -3.70632       -1.03589       -0.57369
O         -1.89510        0.69385       -0.72044
O         -2.49764       -0.18426        1.43425
O         -1.39458       -1.68161       -0.21721
H         -2.96150       -0.89837        1.89528
H         -0.43897       -1.36363        0.03859
N          0.41783        2.12362       -0.11187
C          0.35078        2.34503        1.35038
C          0.38633        3.35642       -0.92490
H          1.28356        1.56852       -0.32639
H         -0.58431        2.85100        1.59431
H          0.39005        1.36995        1.83515
H          1.20292        2.95240        1.65826
H         -0.55136        3.88392       -0.74498
H          1.23118        3.98898       -0.64923
H          0.45999        3.08467       -1.97770
H         -0.37694        1.51533       -0.37663
