28
2sa1a1dma_58.log	Energy: -999019.0795082
S         -1.96502       -0.53981       -0.38672
O         -0.94278       -0.60447       -1.42455
O         -3.22350       -1.22944       -0.56139
O         -1.35896       -1.01829        0.97689
O         -2.24611        0.99843       -0.15836
H         -0.37170       -0.75790        1.04731
H         -3.14345        1.09651        0.34844
S          2.11959       -1.05966        0.23884
O          2.98513       -1.87157        1.05780
O          1.07230       -0.27132        0.97839
O          2.82322       -0.12329       -0.69252
O          1.30769       -2.08556       -0.68593
H          2.32441        1.28334       -0.61800
H          0.57776       -1.61482       -1.14117
N          2.00785        2.31652       -0.50969
C          2.26504        2.71622        0.89439
C          0.58720        2.43572       -0.91611
H          2.59511        2.86260       -1.13841
H          1.69412        2.04302        1.53436
H          3.32815        2.59465        1.10285
H          1.96179        3.75359        1.04744
H         -0.01870        1.85958       -0.21981
H          0.28607        3.48495       -0.90270
H          0.46497        2.01284       -1.91291
N         -4.57145        0.97608        1.05821
H         -5.25807        1.69347        0.84986
H         -4.51792        0.87049        2.06657
H         -4.89981        0.09351        0.67030
