39
2sa1eda1tma_72.log	Energy: -1107746.5515783
S          0.61561       -1.78272       -0.62677
O          0.30328       -0.94293        0.54839
O         -0.26744       -2.94877       -0.77791
O          0.24803       -0.89393       -1.91691
O          2.06952       -2.07397       -0.69265
H          2.66468       -0.82487        0.27938
S         -0.49938        2.15024       -0.30353
O         -0.03634        2.36011        1.06851
O         -1.78448        1.42405       -0.40846
O         -0.79528        3.63785       -0.90894
O          0.52743        1.65169       -1.24356
H         -1.28979        4.12894       -0.23989
H          0.39949        0.06958       -1.71989
H         -3.00085       -2.35885        1.29411
H         -1.85119       -1.02822        1.56994
H         -4.14456       -0.46314        2.47556
H         -3.64429        0.63202        1.17751
H         -5.61858       -1.51746        0.94262
H         -5.71529        0.03374        0.42946
H         -1.85902       -1.96631       -0.70612
H         -3.41310       -1.28293       -0.88167
C         -2.77279       -1.31469        1.06262
C         -3.94055       -0.39714        1.39930
N         -2.51299       -1.22309       -0.39601
N         -5.08428       -0.74827        0.55336
H         -2.08894       -0.28996       -0.59236
N          3.27647       -0.09520        0.72619
C          3.52312        0.93134       -0.31982
H          3.96740        0.44160       -1.18711
H          2.56756        1.38057       -0.59812
H          4.20276        1.68768        0.07965
C          2.57760        0.48249        1.90419
H          1.67112        0.99089        1.57218
H          2.30810       -0.32910        2.57962
H          3.25602        1.18362        2.39723
C          4.51650       -0.81092        1.10397
H          4.27070       -1.57380        1.84282
H          4.92971       -1.28859        0.21531
H          5.23286       -0.09931        1.52042
