33
2sa1ma1eda_80.log	Energy: -1058422.9698851
S         -2.42940        1.03643        0.24512
O         -2.85633       -0.17615        0.97350
O         -1.60209        1.95325        1.04827
O         -1.86090        0.73038       -1.08192
O         -3.78613        1.85062       -0.11782
H         -4.19435        2.14277        0.70881
S          1.81674       -1.71518        0.10594
O          2.82573       -2.73581       -0.09105
O          2.30888       -0.44881        0.69841
O          0.89857       -1.45758       -1.03005
O          0.73639       -2.30903        1.20538
H          1.20846       -2.51246        2.02382
N         -1.72363       -2.08254       -0.69269
H         -2.20880       -1.73959       -1.52129
H         -0.71665       -1.81292       -0.80593
C         -1.85961       -3.54050       -0.49473
H         -1.27506       -3.81477        0.38233
H         -2.90902       -3.79365       -0.34515
H         -1.46596       -4.05979       -1.36809
H         -2.11271       -1.52549        0.09657
H          2.04064        2.26453       -1.89386
H          0.83484        3.44197       -1.32952
H          2.98766        4.16913       -0.50045
H          2.07585        3.58177        0.87601
H          3.41075        1.55347        0.80777
H          4.24396        2.12620       -0.48176
H          0.13934        1.11393       -1.02898
H          1.39757        0.84530        0.03206
C          1.55009        2.67965       -1.00967
C          2.58556        3.26050       -0.04038
N          0.77899        1.58328       -0.37417
N          3.69219        2.39942        0.32316
H          0.14401        1.92539        0.36770
