26
2sa1eda_33.log	Energy: -998259.6277459
S         -1.76662       -1.30050       -0.01063
O         -0.79115       -1.54858       -1.07242
O         -2.74671       -2.29437        0.31563
O         -0.94119       -0.91327        1.30022
O         -2.49641        0.05373       -0.30737
H          0.07949       -1.08804        1.20331
H         -1.86172        0.71572       -0.83438
S          2.27350       -0.38488        0.02094
O          3.70524       -0.33059        0.14988
O          1.54415       -1.00376        1.17189
O          1.62147        0.94235       -0.28807
O          1.96631       -1.30364       -1.25055
H          0.69270        1.52018        0.81682
H          1.01005       -1.52377       -1.26182
H          0.32159        3.34999       -0.87770
H         -1.39040        3.69973       -1.14712
H         -0.81491        3.79092        1.23141
H         -2.05241        2.56437        0.90444
H          0.15255        2.08068        2.33719
H         -0.67065        0.89658        1.52302
H         -1.10269        1.85220       -2.43489
H          0.02656        1.18289       -1.44832
C         -0.69376        2.96006       -0.74442
C         -1.00621        2.83261        0.74550
N         -0.86572        1.68719       -1.46151
N         -0.16201        1.79191        1.41337
