36
2sa1dma1eda_207.log	Energy: -1083071.2907986
S          0.08127       -1.88362       -0.03987
O          1.09794       -2.91127       -0.18913
O         -1.27849       -2.37340        0.29058
O          0.49229       -0.76704        0.85711
O         -0.02418       -1.21674       -1.51353
H          2.10705       -0.47717        0.50340
H         -0.73269       -0.53941       -1.48830
S         -3.11631        0.52242       -0.04578
O         -4.39138        1.12775       -0.32482
O         -2.01015        0.65845       -0.97886
O         -2.53066        1.16475        1.31794
O         -3.34909       -0.96477        0.32736
H         -3.23914        1.20014        1.97663
H         -2.47355       -1.52480        0.33410
N          3.12326       -0.34111        0.27482
C          3.38288       -0.82916       -1.09793
C          3.90971       -1.03416        1.31366
H          3.27915        0.70698        0.30529
H          3.12599       -1.88734       -1.15459
H          2.74654       -0.27644       -1.78960
H          4.43421       -0.66545       -1.34229
H          3.65295       -2.09447        1.29957
H          4.97532       -0.90088        1.11760
H          3.65607       -0.61106        2.28600
H          2.09546        4.03684       -0.65693
H          2.72411        2.77322       -1.72820
H          0.23030        2.61743       -1.35926
H          1.08540        1.15929       -0.90578
H         -0.26863        2.96073        0.85520
H          0.04013        1.36526        0.99885
H          4.03048        3.03316        0.33414
H          2.68486        2.61167        1.18683
C          2.27250        2.95578       -0.74723
C          0.94154        2.20887       -0.63074
N          3.18374        2.47444        0.30563
N          0.45252        2.25834        0.74496
