36
2sa1dma1eda_107.log	Energy: -1083082.5147216
S         -0.98192       -0.52130       -0.63719
O         -1.53045        0.70552        0.09168
O          0.19456       -0.09376       -1.45437
O         -0.56142       -1.51521        0.40853
O         -2.07846       -1.08743       -1.47793
H         -3.40774       -0.95247       -0.55564
S          2.87007       -1.37144        0.22892
O          2.64341       -0.08868        0.91101
O          4.17268       -1.96618        0.32580
O          1.81097       -2.40504        0.74574
O          2.52451       -1.18545       -1.29568
H          0.86074       -2.05527        0.62596
H          1.60023       -0.78649       -1.40937
N         -3.92906       -0.60587        0.30678
C         -3.80720       -1.63013        1.36944
C         -5.30208       -0.17323       -0.00259
H         -3.30709        0.19292        0.53390
H         -4.35394       -2.52352        1.06461
H         -2.74713       -1.86562        1.48511
H         -4.21943       -1.23946        2.30152
H         -5.88145       -1.03442       -0.33849
H         -5.76446        0.25431        0.88897
H         -5.26566        0.57328       -0.79607
H          2.29080        2.87251       -0.38924
H          1.00095        2.08506       -1.33028
H          0.75103        4.59249       -1.35607
H         -0.62484        3.79523       -0.58645
H          1.53840        5.18166        0.82499
H         -0.07461        5.40524        0.96222
H          1.45196        1.12538        0.88972
H          0.80673        2.55817        1.54564
C          1.21283        2.70121       -0.45565
C          0.44213        4.01368       -0.47586
N          0.80452        1.92622        0.74067
N          0.64120        4.70782        0.79835
H         -0.16195        1.52842        0.60046
