36
2sa1dma1eda_41.log	Energy: -1083094.0345906
S         -0.39853        2.27318       -0.55988
O          0.05279        3.63670       -0.71558
O          0.57058        1.25733       -1.10010
O         -0.42377        2.00581        1.02803
O         -1.76801        1.96300       -1.04202
H         -0.99091        1.20154        1.24448
H         -2.20907        0.41376       -1.04410
S          0.59914       -2.29361       -0.31473
O          1.36255       -3.50993       -0.46404
O         -0.87173       -2.43142       -0.49095
O          0.87932       -1.51489        0.93599
O          1.10341       -1.33564       -1.51769
H          2.03773       -0.26317        0.87123
H          0.70941       -0.43408       -1.43476
N          2.60087        0.56021        0.55480
C          3.81798        0.07261       -0.12916
C          2.83928        1.50178        1.66838
H          1.95620        1.00367       -0.13839
H          4.45565       -0.44002        0.59244
H          3.51148       -0.62217       -0.91165
H          4.34943        0.92030       -0.56393
H          3.40839        0.99975        2.45235
H          3.39653        2.36223        1.29516
H          1.87222        1.83501        2.04600
H         -2.69368       -2.06381        1.39342
H         -3.58973       -0.88004        2.34998
H         -4.47714       -1.02087        0.09004
H         -3.83677        0.60684        0.41804
H         -1.96135       -1.27877       -0.82282
H         -3.22480       -0.69528       -1.76860
H         -1.56318       -0.13769        2.84458
H         -0.81774       -0.85557        1.58539
C         -2.87880       -0.99242        1.52628
C         -3.56989       -0.44381        0.28290
N         -1.63040       -0.28526        1.84277
N         -2.68975       -0.52089       -0.92109
