33
2sa1ma1eda_151.log	Energy: -1058413.4696616
S          0.65831       -1.03703        0.13146
O          1.57243       -2.10076        0.56616
O         -0.17662       -0.44327        1.20468
O          1.41062        0.05686       -0.58613
O         -0.30510       -1.69916       -0.91351
H          2.89943       -0.52336       -0.81103
H         -1.13300       -1.11433       -1.04991
S         -3.38901       -0.05547       -0.09561
O         -4.67041       -0.51117       -0.57382
O         -2.26394       -0.08792       -1.08948
O         -3.39800        1.28306        0.56758
O         -2.95570       -1.11557        1.04533
H         -1.99288        1.91015        0.64580
H         -2.02016       -0.96355        1.28778
N         -0.94984        2.17900        0.61169
H         -0.74604        2.87367        1.32574
C         -0.59790        2.64366       -0.74969
H          0.47831        2.79525       -0.82495
H         -0.91661        1.86911       -1.44622
H         -1.13280        3.57057       -0.95711
H         -0.45793        1.29681        0.85154
H          5.14912        1.08544       -1.13659
H          5.77613        1.41349        0.47799
H          5.61484       -0.95085        0.38646
H          4.18384       -0.44362        1.31776
H          4.24588       -1.32504       -1.49760
H          3.34904       -1.94100       -0.20897
H          3.89055        2.83842        0.03096
H          2.87743        1.53847       -0.06688
C          4.89489        1.05291       -0.06113
C          4.67451       -0.39815        0.34358
N          3.75703        1.87618        0.31704
N          3.77722       -1.09755       -0.62321
