31
2sa1ma1dma_10.log	Energy: -1023696.3333458
S         -2.21141       -0.42167       -0.28984
O         -1.92382       -1.81611        0.10534
O         -2.35399        0.51725        0.83039
O         -1.32533        0.06043       -1.36817
O         -3.70509       -0.44803       -0.91726
H         -3.70974       -1.05972       -1.66614
S          2.22611       -0.05156       -0.52350
O          2.37901       -1.50944       -0.76674
O          1.36618        0.15251        0.69165
O          3.44372        0.72803       -0.55439
O          1.33251        0.53087       -1.73524
H          0.41151        0.19336       -1.65737
N          0.54569       -2.86386        0.61022
H          0.50725       -3.84329        0.33749
H          1.28067       -2.37278        0.02110
C          0.85984       -2.70097        2.04881
H          0.96053       -1.63265        2.23552
H          0.05483       -3.12361        2.64995
H          1.80373       -3.19931        2.26941
H         -0.37914       -2.43035        0.38771
N         -0.23908        2.28248        0.78280
C          0.03144        3.00208        2.04239
C         -0.22195        3.13265       -0.42751
H          0.46573        1.50086        0.68692
H         -0.72994        3.76810        2.19863
H          0.01061        2.28582        2.86360
H          1.01850        3.46290        1.98435
H         -0.94091        3.94487       -0.30566
H          0.78291        3.53177       -0.57040
H         -0.49500        2.51449       -1.28150
H         -1.14457        1.77433        0.84191
