31
2sa1a1tma_22.log	Energy: -1023682.9255267
S         -2.06182       -1.45751       -0.21267
O         -3.26346       -0.64571       -0.35280
O         -2.04653       -2.81545       -0.72047
O         -0.84577       -0.66526       -0.66648
O         -1.87008       -1.55323        1.40879
H         -1.29037       -2.30163        1.60583
S          2.15012        0.00171        0.69335
O          1.20039        0.78887        1.45804
O          3.41315       -0.39271        1.27545
O          1.46895       -1.32016        0.17526
O          2.40454        0.81527       -0.64101
H          0.54353       -1.11374       -0.19819
H          3.13246        0.32000       -1.17690
N          4.27964       -0.65375       -1.76537
H          4.94078       -0.27321       -2.43408
H          3.87032       -1.49357       -2.16382
H          4.78938       -0.92848       -0.92858
N         -1.34296        1.98006       -0.21813
C         -1.87170        1.98031        1.17308
H         -2.69507        1.26764        1.22408
H         -1.06880        1.66827        1.84051
H         -2.21469        2.98802        1.41812
C         -0.19872        2.91302       -0.37439
H          0.55242        2.67156        0.37536
H          0.22924        2.78198       -1.36828
H         -0.56407        3.93500       -0.24999
C         -2.41194        2.25092       -1.21421
H         -1.97437        2.20795       -2.21204
H         -3.17457        1.47882       -1.11435
H         -2.82588        3.24444       -1.02811
H         -1.01510        0.99728       -0.39725
