36
2sa1dma1eda_94.log	Energy: -1083085.1631253
S         -0.25158       -1.49118       -0.71629
O          1.04284       -2.21185       -0.70627
O         -0.50118       -0.88112        0.67864
O         -0.14040       -0.33547       -1.68795
O         -1.41444       -2.35711       -1.04262
H         -2.79439       -1.73744       -0.24638
S         -0.27370        2.49751       -0.01051
O         -0.75342        3.82353        0.26405
O          1.14350        2.31091       -0.33744
O         -0.60621        1.59779        1.24985
O         -1.13912        1.85811       -1.14898
H         -0.47318        0.61468        1.01948
H         -0.73655        0.92552       -1.43168
N         -3.17795       -1.19330        0.56812
C         -4.02521       -2.04712        1.42027
C         -3.80500        0.06663        0.11060
H         -2.26643       -0.97936        1.02376
H         -4.93023       -2.31686        0.87391
H         -3.46758       -2.94864        1.67446
H         -4.29186       -1.50501        2.32889
H         -4.67197       -0.16934       -0.50804
H         -4.11113        0.65200        0.97889
H         -3.07394        0.63516       -0.46633
H          3.19326        0.83049        1.28799
H          1.92132       -0.41283        1.36114
H          4.10393       -1.32411        2.21877
H          3.53841       -2.17187        0.77441
H          5.71896       -0.21720        0.86621
H          5.69531       -1.70010        0.17532
H          2.07594        0.81228       -0.75646
H          3.57780        0.04407       -1.00735
C          2.87743       -0.14456        0.90877
C          3.93199       -1.21843        1.14020
N          2.66181       -0.01617       -0.55391
N          5.13265       -0.88170        0.37250
H          2.15354       -0.87182       -0.87862
