28
2sa1a1dma_37.log	Energy: -999024.8875225
S         -1.69489       -0.67188       -0.59699
O         -0.62563       -0.38582       -1.54792
O         -2.96024       -1.19362       -1.05377
O         -1.17394       -1.59559        0.54216
O         -1.94375        0.72103        0.14389
H         -0.22037       -1.28104        0.84194
H         -2.75716        0.60055        0.78882
S          2.26638       -0.82308        0.29943
O          3.35016       -1.51313        0.95020
O          1.03097       -0.62633        1.14411
O          2.60225        0.48398       -0.33089
O          1.79689       -1.79023       -0.90162
H          1.36369        1.44480       -0.22821
H          1.05471       -1.36759       -1.37547
N          0.58015        2.15506       -0.09390
C          0.34338        2.85485       -1.37315
C          0.95891        3.02483        1.03759
H         -0.26107        1.61734        0.15077
H          1.26943        3.33697       -1.68874
H          0.03918        2.11294       -2.11119
H         -0.44348        3.60050       -1.24609
H          1.88866        3.53921        0.79199
H          0.16796        3.75278        1.22770
H          1.11524        2.39482        1.91334
N         -3.99903        0.14620        1.63070
H         -4.51568       -0.45191        0.98895
H         -4.63047        0.86101        1.97756
H         -3.70970       -0.43028        2.41592
