36
2sa1dma1eda_247.log	Energy: -1083054.2763311
S         -1.47462       -0.82691        0.08042
O         -1.87903        0.46360        0.66309
O         -0.53254       -1.61565        0.89187
O         -2.67994       -1.61648       -0.31266
O         -0.76394       -0.52451       -1.31864
H         -3.90870       -0.76923       -0.26925
H          0.21571       -0.57910       -1.22517
S          2.80064       -1.17308       -0.08291
O          3.75947       -0.12329        0.17410
O          1.91142       -1.11749       -1.22768
O          3.64335       -2.52987       -0.30106
O          2.01333       -1.51013        1.22060
H          4.46825       -2.45738        0.19892
H          1.00969       -1.47311        1.08025
N         -4.76068       -0.09113       -0.21413
C         -4.45755        1.08769       -1.06238
C         -4.98846        0.24064        1.21330
H         -5.56606       -0.58988       -0.58914
H         -3.55099        1.54688       -0.66762
H         -4.27532        0.74631       -2.08156
H         -5.29456        1.78802       -1.03817
H         -4.06525        0.67692        1.59607
H         -5.82098        0.94098        1.30335
H         -5.20562       -0.68036        1.75457
H          2.22893        1.77318       -1.12723
H          0.51621        2.10196       -1.35263
H          1.77059        4.19692       -1.25286
H          0.69294        4.08529        0.15181
H          3.54946        3.40846        0.26115
H          2.84586        4.73222        0.92549
H          1.69362        1.54053        1.26024
H          0.09770        1.51620        0.86396
C          1.33745        2.18054       -0.63167
C          1.59070        3.65469       -0.30878
N          1.03461        1.33613        0.51390
N          2.68499        3.76991        0.65279
