39
2sa1eda1tma_24.log	Energy: -1107750.9537957
S         -0.09698       -1.91076       -0.14372
O          0.69874       -1.10705       -1.13660
O         -1.53430       -1.57346       -0.23977
O          0.23621       -3.31947       -0.12868
O          0.41369       -1.34747        1.28523
H          0.23411       -0.36745        1.30304
S          0.31249        2.30248        0.12132
O         -0.06428        1.22457        1.08691
O         -0.90875        2.88287       -0.47668
O          1.31000        3.23730        0.60636
O          1.08499        1.52377       -1.08427
H          0.66391        0.64833       -1.24869
H         -4.69343        1.49953       -0.31793
H         -3.83194        0.90894       -1.75717
H         -5.60032       -0.70360       -0.76456
H         -3.99779       -1.38853       -1.05548
H         -5.29323       -1.38781        1.36153
H         -3.68938       -1.66277        1.13787
H         -2.18912        1.75257       -0.20029
H         -2.89686        0.84740        1.03058
C         -4.01172        0.73351       -0.69456
C         -4.55632       -0.67546       -0.43982
N         -2.72557        0.88390        0.02382
N         -4.44098       -0.99838        0.98237
H         -2.10960        0.06430       -0.16570
N          3.16300       -0.52962       -0.04480
C          3.25369        0.34223        1.15618
H          2.90602        1.34451        0.90272
H          2.62130       -0.07842        1.93676
H          4.29523        0.37041        1.48426
C          3.56174       -1.92994        0.25210
H          2.93245       -2.30130        1.06092
H          3.38969       -2.53657       -0.63696
H          4.61581       -1.94938        0.53631
C          3.90802        0.04258       -1.19449
H          3.76201       -0.60510       -2.05935
H          3.49948        1.03177       -1.40112
H          4.96818        0.10304       -0.94022
H          2.16728       -0.59474       -0.35427
