36
2sa1dma1eda_69.log	Energy: -1083091.3270567
S         -1.81735        1.49116        0.42356
O         -1.30428        1.42477       -0.94871
O         -2.08481        0.13739        0.99097
O         -1.05554        2.35263        1.33407
O         -3.28145        2.16923        0.24411
H         -3.64326        2.34621        1.12351
S          1.25647       -1.52825        0.94444
O          1.95219       -2.78253        1.11793
O          1.84660       -0.34107        1.60669
O          0.92897       -1.18333       -0.48329
O         -0.18982       -1.76723        1.63755
H         -0.60111       -1.49869       -0.98317
H         -0.73088       -0.94691        1.61235
N         -1.63083       -1.67471       -1.12555
C         -1.91712       -3.08801       -0.79525
C         -2.03166       -1.26039       -2.48658
H         -2.06197       -1.05136       -0.41907
H         -1.37003       -3.73015       -1.48676
H         -1.57773       -3.27385        0.22377
H         -2.98911       -3.27151       -0.88318
H         -1.47599       -1.85421       -3.21389
H         -3.10267       -1.42613       -2.61501
H         -1.80166       -0.20120       -2.59790
H          2.54850        3.20737       -1.06041
H          3.28088        2.76104        0.50698
H          4.41215        1.68979       -1.48722
H          3.81158        0.52234       -0.30519
H          3.22053        0.42518       -2.92208
H          2.19738       -0.15750       -1.77112
H          0.83311        2.53909        0.58418
H          0.87804        1.52830       -0.70600
C          2.73990        2.38718       -0.36514
C          3.50290        1.25930       -1.05830
N          1.43123        1.86587        0.09342
N          2.67423        0.67661       -2.10923
H          1.56492        1.04389        0.73894
