33
2sa1ma1eda_176.log	Energy: -1058409.9681400
S         -2.89426       -0.03270       -0.17747
O         -4.23383        0.25643       -0.61702
O         -1.75596        0.38705       -0.99137
O         -2.63611        0.72911        1.22175
O         -2.79401       -1.52703        0.18407
H         -3.40266        0.59334        1.79740
H         -1.80760       -1.90331        0.30280
S          0.69387       -1.67859        0.20527
O          1.93710       -2.42675        0.19142
O         -0.53340       -2.50078        0.38816
O          0.68086       -0.48795        1.08934
O          0.58918       -1.07207       -1.30468
H          1.49354        0.73556        0.26373
H         -0.26870       -0.60500       -1.38103
N         -0.14648        3.04317       -0.67352
H         -0.25910        3.90194       -1.20236
C         -0.47797        3.25790        0.74303
H         -1.48724        3.65421        0.90068
H         -0.41047        2.30198        1.26859
H          0.24245        3.95303        1.18412
H         -0.79678        2.36160       -1.06367
H          3.91617        2.33802       -0.35092
H          3.15339        2.16997        1.25099
H          5.09054        0.53872        0.87967
H          3.55581       -0.24488        1.26381
H          5.01703       -0.51010       -1.15264
H          3.65880       -1.31731       -0.65847
H          1.42862        2.16985       -0.60267
H          2.27121        0.79513       -1.18606
C          3.34961        1.66802        0.30091
C          4.08412        0.33478        0.49953
N          2.06064        1.36310       -0.35479
N          4.09239       -0.40346       -0.75926
