36
2sa1dma1eda_222.log	Energy: -1083064.9858156
S         -0.25191       -1.17144       -0.61655
O          0.93629       -1.77107       -1.23052
O         -1.51141       -1.90870       -0.86007
O         -0.06405       -0.81351        0.80597
O         -0.40633        0.23584       -1.41483
H          1.79489       -0.81532        1.20144
H         -1.27799        0.62826       -1.18307
S         -3.83770        0.39197        0.24650
O         -5.22346        0.77852        0.27468
O         -2.88849        1.08980       -0.60361
O         -3.22211        0.56803        1.72501
O         -3.76943       -1.14393        0.00270
H         -3.86481        0.24373        2.37202
H         -2.84017       -1.45559       -0.30637
N          2.06071        1.68598       -0.41594
C          2.97469        2.57471       -1.12870
C          1.41169        2.33624        0.72584
H          1.32648        1.36285       -1.04705
H          3.82540        2.81509       -0.48370
H          3.34943        2.07437       -2.02627
H          2.49252        3.51344       -1.43650
H          2.16508        2.57673        1.48364
H          0.90000        3.26634        0.44293
H          0.67545        1.65109        1.15437
H          5.07821       -1.83024       -0.13463
H          5.99391       -1.22840        1.24658
H          3.77253       -1.99850        1.95698
H          3.96884       -0.25120        2.24058
H          2.63431        0.24293        0.23498
H          2.52097       -1.40449       -0.10084
H          6.29829        0.44576       -0.27150
H          4.77179        0.41756       -0.84137
C          5.13938       -1.01146        0.59973
C          3.89342       -1.02536        1.47395
N          5.33207        0.30292       -0.00338
N          2.68227       -0.74713        0.67631
