25
2sa1a1ma_54.log	Energy: -974353.5928159
S          2.34273       -0.29686        0.50733
O          3.71968       -0.57153        0.84417
O          1.28463       -0.67821        1.43450
O          2.14810        1.22898        0.21886
O          2.08487       -0.99023       -0.88930
H          2.99110        1.58710       -0.26940
H          1.11211       -0.98557       -1.10863
S         -1.63580       -0.70108       -0.47727
O         -0.51764       -1.00998       -1.36512
O         -2.94337       -1.23162       -0.78739
O         -1.29356       -1.23218        0.98063
O         -1.68742        0.83895       -0.31659
H         -0.34813       -1.02829        1.20303
H         -2.58819        1.12628        0.23807
N         -3.81831        1.41161        0.92327
H         -3.92738        0.69332        1.63565
C         -4.93670        1.35728       -0.03717
H         -5.90877        1.49716        0.44454
H         -4.79286        2.13555       -0.78870
H         -4.90828        0.38801       -0.53684
H         -3.78754        2.30631        1.40414
N          4.38394        1.92897       -0.94935
H          5.02001        1.25890       -0.52273
H          4.74284        2.86316       -0.78144
H          4.38259        1.76404       -1.95122
