24
2sa1dma_05.log	Energy: -963526.1750042
S          2.00366       -0.73696       -0.01546
O          3.22434       -1.43862       -0.33984
O          2.10229        0.47660        0.81041
O          1.06174       -0.51842       -1.15108
O          1.15367       -1.76917        0.98864
H          1.43043       -2.67697        0.80328
S         -2.12206       -0.62497       -0.08297
O         -2.16430        0.72467       -0.64101
O         -3.34935       -1.29270        0.23505
O         -1.27157       -1.57309       -0.99712
O         -1.19971       -0.46255        1.21986
H         -0.35522       -1.17888       -1.17754
H         -0.50452       -1.15778        1.28012
N          0.12344        2.20665        0.02218
C         -0.28482        3.12211        1.10872
C          0.70116        2.86749       -1.16925
H          0.83031        1.52926        0.38982
H         -1.03284        3.82080        0.73195
H         -0.70860        2.52728        1.91754
H          0.59065        3.66532        1.46636
H         -0.03795        3.54389       -1.60060
H          1.59224        3.42174       -0.87217
H          0.97022        2.09233       -1.88655
H         -0.69929        1.64598       -0.26873
