36
2sa1dma1eda_181.log	Energy: -1083070.5003751
S         -0.49183        2.21365        0.51992
O         -1.82723        1.55828        0.69423
O          0.57519        1.48964        1.22457
O         -0.21112        2.53996       -0.87574
O         -0.59618        3.59865        1.34892
H         -1.29157        4.14223        0.95340
S         -2.46664       -1.28336       -0.48356
O         -1.20406       -1.23839       -1.21383
O         -3.29992       -2.44182       -0.60896
O         -2.16346       -1.05423        1.06041
O         -3.32096       -0.00653       -0.87179
H         -1.90348       -0.10528        1.19768
H         -2.83702        0.80262       -0.57069
N          2.28651       -2.50948        0.68716
C          1.01744       -3.19927        0.92639
C          2.82462       -1.87853        1.89209
H          2.96830       -3.16216        0.31509
H          0.26367       -2.46883        1.23653
H          0.66817       -3.66535        0.00217
H          1.08943       -3.96710        1.70995
H          2.12494       -1.10911        2.23503
H          2.97781       -2.59197        2.71481
H          3.76996       -1.38995        1.64735
H          2.36230       -0.29922       -2.62636
H          1.42046        1.16470       -2.24257
H          3.79452        1.71185       -2.11290
H          3.05950        1.79998       -0.51181
H          4.79274       -0.36236       -1.46489
H          4.96957        0.57562       -0.14078
H          0.49255       -0.64251       -1.05550
H          1.94601       -1.13261       -0.36182
C          2.11463        0.42278       -1.84288
C          3.36093        1.10704       -1.30394
N          1.41771       -0.30206       -0.75689
N          4.28314        0.12518       -0.73495
H          1.23232        0.34285        0.03392
