37
2sa1dma1tma_66.log	Energy: -1072992.0071201
S          0.48611       -1.62052        0.05344
O          1.46322       -2.52348        0.64264
O         -0.23097       -0.77381        1.05934
O          1.04653       -0.75066       -1.01623
O         -0.61526       -2.54611       -0.63172
H         -1.34058       -1.98031       -0.97726
S         -3.27431        0.01600       -0.09069
O         -4.70822        0.08682        0.00306
O         -2.62045       -0.70815       -1.16533
O         -2.69856        1.52066       -0.23726
O         -2.71855       -0.44416        1.29053
H         -3.26792        2.11443        0.27289
H         -1.70800       -0.62335        1.23400
N          0.72780        2.12891        0.10297
C          0.45263        2.49972       -1.27942
C          0.23415        3.11323        1.05263
H          0.27942        1.23522        0.29201
H          1.03611        3.38975       -1.54749
H          0.74210        1.67587       -1.93662
H         -0.61047        2.71985       -1.46205
H          0.79070        4.05121        0.94253
H         -0.83650        3.34326        0.91932
H          0.37977        2.74838        2.07373
N          3.38236        0.15768       -0.07457
C          4.22794       -1.01206       -0.42170
H          3.75427       -1.90550       -0.01231
H          4.28280       -1.09588       -1.50737
H          5.22624       -0.87000       -0.00186
C          3.85674        1.41777       -0.69276
H          3.90322        1.28371       -1.77419
H          3.13198        2.19392       -0.44180
H          4.84868        1.65717       -0.30251
C          3.21831        0.29864        1.39636
H          2.52626        1.12219        1.57184
H          2.80184       -0.63029        1.78800
H          4.19452        0.50074        1.84336
H          2.42526       -0.05681       -0.46790
