34
2sa1ma1tma_16.log	Energy: -1048353.1692051
S          1.17082       -1.66786       -0.44228
O          0.64786       -0.86570       -1.73737
O          2.60937       -1.76352       -0.64014
O          0.76706       -0.81219        0.71832
O          0.43747       -2.95605       -0.40302
H         -1.08439       -2.71488        0.15863
S         -2.03464        1.27601       -0.43839
O         -3.19317        2.01593       -0.91177
O         -0.76773        2.00587       -0.37898
O         -2.40392        0.87490        1.12935
O         -1.86703       -0.08413       -1.03647
H         -3.08246        1.50159        1.41206
H         -0.27020       -0.53736       -1.56845
N         -1.99116       -2.32079        0.53551
H         -2.10604       -1.41145        0.03269
C         -1.88682       -2.12384        2.00023
H         -2.78935       -1.63836        2.36834
H         -1.74381       -3.09196        2.48065
H         -1.02145       -1.48602        2.17350
H         -2.76193       -2.93276        0.27858
N          2.16765        1.48941        0.51134
C          1.69505        2.64295        1.31444
H          0.74833        2.98517        0.89884
H          1.54880        2.31410        2.34409
H          2.45080        3.43113        1.27899
C          3.42363        0.91051        1.05441
H          3.26162        0.64554        2.09954
H          3.66101        0.01010        0.48581
H          4.22041        1.65324        0.97248
C          2.30934        1.83555       -0.92916
H          2.61711        0.93948       -1.46807
H          1.33875        2.16791       -1.29503
H          3.06088        2.62281       -1.02584
H          1.45128        0.71885        0.57702
