39
2sa1eda1tma_64.log	Energy: -1107746.1484160
S         -2.61627       -0.94381       -0.29979
O         -1.79964        0.03174       -1.06652
O         -2.25820       -2.33278       -0.64715
O         -2.69057       -0.63387        1.12680
O         -4.15223       -0.74338       -0.80879
H         -4.22630       -1.12788       -1.69247
S          2.53980        0.97567       -0.24477
O          2.66230        2.33021        0.30291
O          3.04790       -0.12358        0.57486
O          1.15959        0.72192       -0.75416
O          3.50657        0.92797       -1.56121
H          3.44083        1.78245       -2.00675
H          1.07658       -1.21603        1.29449
H         -0.31768       -2.32773        1.31888
H          1.92320       -3.27809        2.18694
H          1.14935       -4.24935        0.92547
H          3.28804       -2.29843        0.38738
H          3.38181       -3.94568        0.22470
H          0.59256       -0.91799       -0.81067
H          1.30914       -2.41753       -1.02649
C          0.66487       -2.13841        0.88524
C          1.64157       -3.29107        1.12563
N          0.51133       -1.93407       -0.58469
N          2.75896       -3.14865        0.19772
H         -0.40392       -2.28274       -0.90844
N         -1.17701        2.26102        0.43162
C         -0.45609        3.38490       -0.21893
H          0.60649        3.14704       -0.26084
H         -0.85876        3.51603       -1.22385
H         -0.61936        4.28985        0.37084
C         -2.63165        2.54163        0.55350
H         -3.04571        2.67888       -0.44538
H         -3.10993        1.68731        1.03244
H         -2.76508        3.44765        1.14825
C         -0.58597        1.90746        1.74936
H         -1.07371        0.99733        2.10061
H          0.48386        1.75436        1.61875
H         -0.76214        2.73172        2.44407
H         -1.10085        1.41804       -0.18017
