36
2sa1dma1eda_05.log	Energy: -1083094.6187329
S         -1.01080        1.59774       -0.53228
O          0.06585        2.56783       -0.82442
O         -0.71996        0.89751        0.76094
O         -2.37815        2.07917       -0.65597
O         -0.91417        0.43258       -1.65048
H         -0.01433        0.02549       -1.62150
S          1.72312       -1.74068       -0.19817
O          2.16365       -1.10813        1.06227
O          0.65369       -2.73556       -0.01202
O          1.49359       -0.75484       -1.26897
O          2.99579       -2.57555       -0.76613
H          3.09258       -3.37363       -0.22919
N          2.19374        1.64980        0.64781
C          3.43023        1.79304       -0.14697
C          2.19879        2.35073        1.94666
H          1.38235        1.99985        0.08643
H          4.27019        1.38394        0.41630
H          3.30047        1.23413       -1.07367
H          3.59806        2.84896       -0.36399
H          2.99645        1.94827        2.57308
H          2.35456        3.41748        1.77928
H          1.23023        2.18781        2.41906
H          2.03278        0.63617        0.81613
H         -3.47575       -2.67903        1.03612
H         -2.69953       -1.72740        2.32801
H         -4.90327       -0.71273        1.50346
H         -3.51599        0.37170        1.35866
H         -5.07494       -0.65277       -0.77793
H         -3.85676        0.47133       -0.81476
H         -1.10822       -2.29022        0.43864
H         -2.15650       -1.41383       -0.54010
C         -3.01372       -1.71982        1.28222
C         -3.95972       -0.55168        0.97178
N         -1.82132       -1.54746        0.42489
N         -4.13475       -0.44482       -0.47209
H         -1.32904       -0.64884        0.66507
