30
2sa1a1eda_72.log	Energy: -1033766.8562328
S          0.70367        1.66012        0.12221
O          0.30227        0.82290        1.27524
O         -0.21021        2.79802       -0.08721
O          2.13625        2.02468        0.13600
O          0.62367        0.71874       -1.17709
H         -0.29045        0.29559       -1.24743
S         -2.22531       -1.18191       -0.09389
O         -1.75926       -0.25788       -1.18000
O         -3.10609       -0.41645        0.83051
O         -2.71593       -2.46495       -0.53707
O         -0.88919       -1.52138        0.76205
H         -0.51387       -0.67029        1.09854
H          4.54965       -1.73200       -0.08941
H          4.31471       -0.38208        1.05200
H          2.87895       -2.42756        1.59920
H          1.93898       -0.95800        1.31852
H          2.09686       -3.25433       -0.44790
H          0.84496       -2.22986       -0.14498
H          4.13185        0.06522       -1.50046
H          2.62917       -0.67587       -1.29784
C          3.83148       -1.00412        0.29703
C          2.57663       -1.70335        0.83429
N          3.39281       -0.14316       -0.83442
N          1.85154       -2.28404       -0.29056
H          2.96963        0.76317       -0.48412
N         -2.85953        2.11314        0.05922
H         -1.85284        2.41028        0.08834
H         -3.12522        2.02058       -0.91965
H         -2.97000        1.14199        0.48992
H         -3.45064        2.79558        0.52516
