26
2sa1eda_71.log	Energy: -998251.3352584
S         -0.41286       -1.02104        0.08787
O          0.49767       -0.65734        1.19839
O         -1.41685       -2.03034        0.42870
O         -1.02732        0.19236       -0.53131
O          0.48422       -1.70897       -1.03993
H          1.27760       -1.15130       -1.20451
S          3.33560        0.65494       -0.13373
O          4.22424        1.75984       -0.37710
O          2.63541        0.00556       -1.22686
O          4.16741       -0.54344        0.55171
O          2.33312        1.08338        0.98168
H          4.78258       -0.16915        1.19850
H          1.57026        0.40573        1.07806
H         -4.93996       -0.53233        1.03061
H         -3.26424       -0.14747        1.49093
H         -4.70579        1.92626        1.45327
H         -3.39139        2.00040        0.27652
H         -6.21542        1.54828       -0.32801
H         -5.14069        2.52548       -1.07749
H         -3.38251       -1.55354       -0.48050
H         -4.20316       -0.28871       -1.28534
C         -4.03850        0.01359        0.73949
C         -4.33024        1.49303        0.51829
N         -3.54610       -0.54613       -0.54372
N         -5.24624        1.63050       -0.61558
H         -2.57548       -0.14486       -0.73216
