31
2sa1ma1dma_54.log	Energy: -1023680.0651440
S          0.19376        2.09393       -0.06490
O          0.75118        3.26963       -0.69600
O          0.41246        0.80292       -0.76730
O          1.13009        1.82500        1.29007
O         -1.17951        2.21951        0.45218
H          1.18602        2.65363        1.78481
H         -2.41172        1.13327        0.27159
S         -2.48665       -0.96282       -0.20036
O         -3.54555       -1.86468       -0.54059
O         -3.11618        0.45374        0.06654
O         -1.59323       -1.29166        0.91440
O         -1.59325       -0.75101       -1.49030
H          0.12306       -1.18252        1.15177
H         -0.83279       -0.13712       -1.28476
N          1.11759       -1.05552        1.41595
H          1.72024       -1.15072        0.52760
C          1.52218       -2.00353        2.47090
H          2.57150       -1.84228        2.72054
H          0.90520       -1.85962        3.35785
H          1.38825       -3.02029        2.10182
H          1.20213       -0.07516        1.70663
N          2.68095       -1.04472       -0.85520
C          3.01658       -2.25811       -1.59607
C          3.84801       -0.22983       -0.51776
H          2.03829       -0.46802       -1.39490
H          3.63447       -2.90852       -0.96885
H          2.10010       -2.79521       -1.85177
H          3.57098       -2.04913       -2.52195
H          4.49777       -0.78814        0.16450
H          4.43899        0.05027       -1.40078
H          3.51516        0.68457       -0.01955
