21
2sa1ma_12.log	Energy: -938858.3887533
S          2.18314       -0.58786       -0.11624
O          2.65118        0.81844       -0.03464
O          0.79770       -0.67348        0.42824
O          2.41169       -1.24970       -1.38664
O          3.02977       -1.40466        1.00293
H          3.81628       -1.76258        0.56925
S         -2.42044       -0.34379       -0.10911
O         -3.66318       -0.59218       -0.78678
O         -1.85621        0.99766       -0.07667
O         -2.57955       -0.70791        1.45373
O         -1.37240       -1.37170       -0.61909
H         -3.04999       -1.55024        1.53801
H         -0.43369       -1.16580       -0.25087
N          0.50672        2.28513        0.58608
H         -0.26473        1.59913        0.50175
H          0.49948        2.65714        1.53326
C          0.33771        3.34565       -0.43443
H          1.14328        4.07296       -0.33908
H          0.38329        2.87509       -1.41535
H         -0.63148        3.82562       -0.30434
H          1.40900        1.75338        0.42828
