36
2sa1dma1eda_188.log	Energy: -1083069.3709020
S          1.54247       -1.53693       -0.86367
O          0.88337       -0.59660       -1.77051
O          2.92674       -1.23720       -0.49477
O          0.71246       -1.81313        0.35350
O          1.57355       -2.92215       -1.70349
H          2.21293       -3.51243       -1.28187
S         -2.53604       -0.78872        0.59511
O         -3.88029       -1.06205        1.03163
O         -2.27945       -0.00328       -0.59386
O         -1.77542        0.07012        1.75493
O         -1.74651       -2.12189        0.58474
H         -1.98796       -0.30746        2.62020
H         -0.72966       -1.99591        0.39290
N          2.46984        1.17701        1.26463
C          2.04639        0.51546        2.49958
C          3.36549        2.30562        1.49708
H          2.93019        0.48046        0.67563
H          1.42299        1.19904        3.08684
H          1.46006       -0.36976        2.24160
H          2.89817        0.20690        3.12255
H          2.83382        3.09042        2.04596
H          4.25574        2.02719        2.07992
H          3.69389        2.71866        0.53976
H          0.56724        3.57612       -0.81688
H          1.05211        2.30186       -1.97222
H         -1.04055        3.55104       -2.70157
H         -1.29188        1.81712       -2.49555
H         -2.60738        3.87019       -1.09557
H         -2.78558        2.24135       -0.90366
H          1.05703        1.53440        0.39581
H         -0.65645        1.83146        0.36326
C          0.27589        2.62833       -1.27709
C         -1.08750        2.74927       -1.95815
N          0.16864        1.61627       -0.20516
N         -2.11502        2.99999       -0.94814
H          0.03110        0.69398       -0.64533
