33
2sa1ma1eda_20.log	Energy: -1058429.3030998
S         -0.26283       -2.21563       -0.51927
O         -1.68297       -2.44245       -0.81288
O         -0.14122       -1.51609        0.82919
O          0.66550       -3.31683       -0.66241
O          0.27171       -1.10420       -1.56783
H         -0.32802       -0.32024       -1.54675
S         -0.96945        2.15713       -0.27745
O         -1.32802        1.05384       -1.19892
O         -1.85301        2.17017        0.90605
O          0.46434        2.26524        0.01399
O         -1.25530        3.53218       -1.08290
H         -2.18630        3.54652       -1.34295
N         -2.66450       -0.50679        0.98582
H         -1.69927       -0.87708        1.15835
H         -2.60497        0.52580        1.05724
C         -3.66794       -1.12962        1.86940
H         -4.65826       -0.74173        1.63136
H         -3.64316       -2.20803        1.71500
H         -3.42435       -0.89846        2.90603
H         -2.81192       -0.76007        0.00337
H          3.21104       -1.35697       -0.01732
H          2.51390       -0.21945       -1.17010
H          4.96710        0.24532       -0.80019
H          3.96724        1.60661       -0.28233
H          5.24390       -0.33526        1.49789
H          5.28976        1.29864        1.56024
H          1.22840       -0.59597        0.94473
H          2.50201        0.26421        1.71255
C          2.98452       -0.30159       -0.19091
C          4.22778        0.56752       -0.05613
N          1.99557        0.11648        0.83395
N          4.70349        0.50649        1.32738
H          1.51295        0.99624        0.56187
