33
2sa1ma1eda_46.log	Energy: -1058426.8941913
S          2.37599       -1.04681       -0.13946
O          3.04000        0.18062        0.30907
O          2.05245       -2.00014        0.94055
O          1.22639       -0.81450       -1.04709
O          3.42530       -1.80874       -1.12111
H          4.24061       -1.96405       -0.62498
S         -2.76898        0.32419       -0.19865
O         -2.50445        1.51616       -1.02728
O         -2.96427       -0.91791       -0.95163
O         -1.80057        0.17546        0.91651
O         -4.15804        0.63138        0.59057
H         -4.83820        0.82624       -0.06839
N         -0.68723       -2.28529        0.44867
H         -1.08500       -1.37744        0.78311
H         -0.55604       -2.14724       -0.55633
C         -1.59706       -3.41011        0.74609
H         -1.17476       -4.33366        0.35037
H         -1.71618       -3.49210        1.82599
H         -2.55905       -3.19984        0.27956
H          0.26915       -2.38585        0.83616
H          2.17833        2.08959       -1.11991
H          0.99670        3.30737       -1.65688
H          2.58278        4.03284        0.23734
H          0.86254        4.25599        0.59339
H          2.41268        1.92619        1.51511
H          1.71480        3.10638        2.45269
H          0.46176        0.76570       -0.84254
H          0.19775        1.63114        0.53945
C          1.30784        2.67711       -0.82298
C          1.63953        3.50215        0.42515
N          0.22654        1.71365       -0.49225
N          1.65930        2.60821        1.57434
H         -0.72657        1.95111       -0.81601
