33
2sa1ma1eda_25.log	Energy: -1058428.6486388
S         -0.41835        2.17351       -0.45234
O          0.01014        2.43935        0.92764
O          0.63090        1.55776       -1.29112
O         -1.72147        1.49068       -0.57623
O         -0.64660        3.66475       -1.04525
H         -0.95138        3.58538       -1.95957
S          1.49403       -1.92489       -0.47335
O          0.34842       -2.45065       -1.25149
O          2.59675       -2.83345       -0.25276
O          2.13691       -0.71959       -1.35588
O          0.98869       -1.22761        0.75776
H          1.46107       -0.02060       -1.49512
H          1.86857        0.07132        1.11331
N          2.36419        1.00894        1.16564
H          2.80944        1.12019        0.25372
C          3.32752        1.08051        2.28085
H          3.81522        2.05528        2.28843
H          2.79011        0.93366        3.21707
H          4.07039        0.29194        2.16246
H          1.60162        1.71347        1.21844
H         -2.16406       -2.52914        1.15630
H         -1.31473       -1.01177        1.48524
H         -3.66447       -0.95811        2.41914
H         -3.42038        0.26568        1.16503
H         -4.90829       -2.23491        0.85345
H         -5.32981       -0.71926        0.40448
H         -1.10165       -1.77608       -0.83503
H         -2.80137       -1.55191       -0.97489
C         -2.16411       -1.45283        0.96381
C         -3.49193       -0.81128        1.34537
N         -1.94925       -1.25653       -0.49032
N         -4.54911       -1.35809        0.49163
H         -1.81073       -0.24167       -0.67141
