26
2sa1eda_65.log	Energy: -998252.6808897
S          1.26161       -1.59177        0.05416
O          1.12968       -1.12934       -1.33716
O          2.16409       -0.78153        0.88001
O         -0.03957       -1.85568        0.71961
O          1.95531       -3.04407       -0.12404
H          2.02860       -3.45375        0.74889
S         -2.62440        0.31050       -0.11757
O         -3.96270        0.50533       -0.61213
O         -1.51865        1.08371       -0.64480
O         -2.59734        0.63772        1.46364
O         -2.32264       -1.21613       -0.17246
H         -3.38950        0.25902        1.87146
H         -1.37715       -1.45476        0.14261
H          2.98511        0.90091       -0.72139
H          2.97921        2.37815       -1.71521
H          3.58747        2.67596        0.78491
H          2.29245        3.73578        0.21021
H          1.81884        1.21684        1.66258
H          1.38737        2.75547        2.12476
H          0.95656        0.57963       -1.48211
H          0.54915        1.68076       -0.30791
C          2.50379        1.86730       -0.87714
C          2.55342        2.69165        0.41606
N          1.07913        1.57711       -1.19821
N          1.56642        2.14817        1.33654
H          0.65897        2.19546       -1.88742
