26
2sa1eda_62.log	Energy: -998251.9259770
S          2.28720        0.46444       -0.07201
O          2.25659       -1.02224       -0.01205
O          1.76771        1.00788       -1.32723
O          1.72454        1.12415        1.12284
O          3.86173        0.82083        0.03334
H          4.34173        0.25602       -0.58783
S         -1.07094       -1.96184       -0.04001
O         -2.10189       -2.84201       -0.52755
O         -1.23242       -0.52266       -0.13941
O         -0.88080       -2.19952        1.54519
O          0.28031       -2.42212       -0.64322
H         -0.84197       -3.15124        1.71878
H          1.07576       -1.80371       -0.39345
H         -1.75304        1.26886        1.40815
H         -1.50659        2.99477        1.74964
H         -3.80667        2.44216        0.82864
H         -2.93633        3.65135       -0.11956
H         -3.04713        0.80555       -0.86912
H         -3.71727        2.07784       -1.67743
H          0.35869        1.86692        0.56311
H         -0.68463        1.57622       -0.70751
C         -1.68624        2.26169        0.96116
C         -2.94485        2.59156        0.16167
N         -0.50178        2.22372        0.06929
N         -2.96582        1.80058       -1.05898
H         -0.28916        3.12966       -0.34551
