30
2sa1a1eda_90.log	Energy: -1033765.7126596
S         -2.67446        0.19540        0.11980
O         -1.96517       -0.39874       -1.03823
O         -2.65601       -0.66241        1.31135
O         -2.29784        1.60050        0.36957
O         -4.21500        0.23658       -0.40217
H         -4.75276        0.65537        0.28364
S          1.95287       -1.20614       -0.16513
O          2.03365       -0.62748       -1.50918
O          0.84583       -0.56414        0.62675
O          1.85766       -2.66989       -0.08904
O          3.30211       -0.81829        0.61077
H          3.27954        0.16439        0.71570
H          2.14711        1.87087       -1.45264
H          1.09096        3.30499       -1.58075
H          2.61761        3.66557        0.22528
H          1.00608        3.45511        0.91187
H          2.89822        2.25052        2.01463
H          1.65686        1.26651        1.61636
H         -0.08381        1.15927       -1.76833
H          0.39071        0.71002       -0.26727
C          1.36139        2.44711       -0.96025
C          1.83040        2.92872        0.40749
N          0.17901        1.55531       -0.86526
N          2.39588        1.85142        1.22825
H         -0.67413        1.97427       -0.45606
N         -0.94673       -2.66522        0.20061
H         -1.14375       -2.18831        1.08761
H         -1.24320       -1.96220       -0.51051
H          0.07354       -2.85994        0.11515
H         -1.50720       -3.50909        0.12344
