30
2sa1a1eda_118.log	Energy: -1033759.7935887
S          0.21034        1.84467       -0.09713
O          1.41474        1.17604       -0.60020
O         -0.89806        1.95645       -1.05986
O         -0.24306        1.32921        1.22168
O          0.73401        3.34856        0.17196
H         -0.02216        3.90045        0.41606
S         -2.51549       -0.94809       -0.11874
O         -3.60742       -1.87386       -0.04440
O         -1.20015       -1.39354       -0.56744
O         -2.96449        0.26056       -1.03063
O         -2.34524       -0.29562        1.31563
H         -2.21240        0.90478       -1.13539
H         -1.57661        0.34034        1.31580
H          3.07952       -2.91409       -0.21568
H          2.86360       -2.47706       -1.92770
H          4.85202       -1.39982       -0.89188
H          3.70304       -0.22800       -1.54440
H          4.67317        0.03069        0.85228
H          3.10533        0.39179        0.57552
H          0.73254       -2.21898       -0.95139
H          1.31764       -1.55949        0.48039
C          2.84797       -2.09675       -0.90304
C          3.85936       -0.96493       -0.74313
N          1.47782       -1.62715       -0.58601
N          3.78084       -0.36998        0.58895
H          1.30515       -0.66975       -0.92900
N          1.09671       -1.25580        2.10302
H          2.00943       -1.24697        2.54814
H          0.45930       -1.82087        2.65424
H          0.73851       -0.30007        2.08851
