30
2sa1a1eda_150.log	Energy: -1033752.3091075
S         -0.82577       -2.16177       -0.08982
O          0.01577       -1.74399       -1.21761
O         -0.13841       -2.20085        1.20548
O         -2.13501       -1.45489       -0.02012
O         -1.21198       -3.68915       -0.46990
H         -1.83259       -4.01775        0.19473
S         -1.62103        1.93476       -0.24241
O         -2.00581        3.21911       -0.76883
O         -0.24756        1.48202       -0.30046
O         -1.93465        1.91481        1.35152
O         -2.59744        0.87205       -0.80995
H         -2.81219        2.29148        1.50790
H         -2.36006       -0.09316       -0.51407
H          2.85206        0.54414       -1.90584
H          1.99706        1.67745       -0.84496
H          4.46998        2.07666       -0.76058
H          3.85855        1.54401        0.80832
H          5.33587       -0.13161       -1.08653
H          5.64198        0.13288        0.49839
H          1.32645       -0.73428       -0.63055
H          2.84737       -0.98192        0.02928
C          2.70917        0.85267       -0.86622
C          4.03977        1.22178       -0.22233
N          2.11636       -0.28204       -0.12617
N          4.90136        0.04013       -0.18586
H          1.74603        0.02091        0.82438
N          0.92806        0.33615        2.33808
H          1.35044        0.42120        3.25614
H          0.37678       -0.52396        2.31452
H          0.27760        1.10705        2.21238
