28
2sa1a1dma_79.log	Energy: -998995.4644632
S         -1.99274        0.66712        0.34858
O         -2.96801        1.71988        0.48829
O         -0.88171        0.59467        1.29464
O         -2.67777       -0.73055        0.35592
O         -1.40088        0.80688       -1.11597
H         -3.65249       -0.65493       -0.04687
H         -0.65090        0.17625       -1.23271
S          1.51636       -1.50475       -0.12686
O          2.91406       -1.69297       -0.40981
O          0.60324       -1.02358       -1.14655
O          0.88175       -2.90348        0.33370
O          1.41379       -0.61437        1.15586
H          1.53638       -3.39534        0.85138
H          0.51140       -0.17953        1.23801
N          3.38069        1.72352       -0.59305
C          2.04644        2.15488       -0.96777
C          3.72446        2.07926        0.77206
H          3.48065        0.72302       -0.72283
H          2.01820        3.24846       -1.03253
H          1.79141        1.75555       -1.95308
H          1.26269        1.85017       -0.25069
H          3.78054        3.17011        0.86244
H          2.99689        1.71491        1.51881
H          4.70819        1.67238        1.02081
N         -5.05561       -0.37220       -0.57795
H         -5.15769       -0.53925       -1.57441
H         -5.18883        0.62279       -0.40904
H         -5.79089       -0.87836       -0.09425
