26
2sa1eda_81.log	Energy: -998253.1593155
S         -0.97624       -1.67952        0.00348
O         -0.40520       -0.62935       -0.91938
O         -0.39563       -2.99154       -0.16263
O         -0.63457       -1.13106        1.48556
O         -2.45353       -1.58353       -0.03094
H          0.32989       -0.96586        1.54232
H         -2.84391       -0.18312       -0.66566
S          2.63465        0.27684        0.02701
O          1.99167       -0.22953        1.22413
O          4.06716        0.32502       -0.08911
O          2.04982       -0.38691       -1.24437
O          2.07720        1.80830       -0.07611
H          1.02163       -0.55171       -1.14427
H          2.64519        2.29434       -0.69107
H         -3.78764        2.58469       -0.10300
H         -3.94009        1.12300        0.91026
H         -2.08200        2.68546        1.69206
H         -1.50571        1.06968        1.27581
H         -1.01416        3.51119       -0.20201
H         -0.09169        2.15613       -0.08016
H         -3.76637        0.85127       -1.65645
H         -2.14007        1.18869       -1.37172
C         -3.28763        1.67114        0.22884
C         -1.92804        1.98864        0.86063
N         -3.02146        0.82514       -0.96527
N         -1.04153        2.49904       -0.18156
