28
2sa1a1dma_59.log	Energy: -999018.6258628
S          2.08031       -0.15170        0.67382
O          3.38627       -0.38205        1.24734
O          0.93817        0.09461        1.54734
O          2.14103        1.08688       -0.30346
O          1.77203       -1.36662       -0.26795
H          3.02585        1.03091       -0.83295
H          0.81073       -1.31032       -0.60858
S         -1.88112       -1.29137       -0.31969
O         -2.16515       -2.69394       -0.12802
O         -0.61211       -0.98330       -1.04304
O         -2.99797       -0.48037       -0.87746
O         -1.68942       -0.58496        1.14037
H         -2.65371        1.00262       -0.69207
H         -0.73933       -0.56173        1.38305
N         -2.42682        2.03551       -0.46834
C         -0.95265        2.23270       -0.46929
C         -3.07324        2.36353        0.82530
H         -2.84497        2.58824       -1.21536
H         -0.52604        1.67204        0.36141
H         -0.54271        1.83893       -1.39806
H         -0.72873        3.29524       -0.36040
H         -2.68475        1.66928        1.57021
H         -2.84862        3.39553        1.10025
H         -4.14911        2.21999        0.72587
N          4.46693        0.72320       -1.47769
H          5.00881        1.50664       -1.82682
H          4.40869        0.02379       -2.21173
H          4.96859        0.30760       -0.69566
