36
2sa1dma1eda_59.log	Energy: -1083088.7438575
S          2.93582        0.31767       -0.23884
O          3.16633       -0.78310       -1.17332
O          2.57168        1.59996       -0.88006
O          2.03068       -0.02767        0.88354
O          4.34062        0.59612        0.53302
H          5.00779        0.81310       -0.13229
S         -2.66707       -0.69744       -0.18958
O         -2.72753       -1.56930        0.98241
O         -3.16695        0.66640        0.00120
O         -1.32303       -0.72901       -0.84986
O         -3.58879       -1.37999       -1.34588
H         -4.50230       -1.39139       -1.02918
N          0.55005       -2.28775        0.43873
C          0.04104       -2.91447        1.67804
C          1.20617       -3.22611       -0.49877
H         -0.23201       -1.80334       -0.05330
H          0.87856       -3.35475        2.22134
H         -0.45074       -2.15190        2.27977
H         -0.69164       -3.67825        1.41766
H          2.03166       -3.72261        0.01316
H          0.47377       -3.96113       -0.83550
H          1.60201       -2.65461       -1.33749
H          1.20981       -1.51337        0.67873
H         -1.07046        1.34949        1.21203
H          0.57369        2.00463        1.34204
H         -1.34160        3.61432        1.98447
H         -0.23612        4.25550        0.75958
H         -2.79962        2.96543        0.09687
H         -2.41646        4.56342       -0.10030
H         -0.49741        0.83572       -0.83869
H         -0.75757        2.45184       -1.15015
C         -0.37940        2.09743        0.82234
C         -0.99604        3.48951        0.94966
N         -0.16372        1.79445       -0.62211
N         -2.04035        3.62479       -0.06141
H          0.84196        1.86829       -0.87647
