36
2sa1dma1eda_126.log	Energy: -1083077.4812234
S          0.44517       -1.29057       -0.16156
O          1.22586        0.06265       -0.06394
O         -0.42245       -1.37176        1.05474
O         -0.34209       -1.27767       -1.40196
O          1.48875       -2.36885       -0.13611
H          2.89952       -1.78183       -0.00280
S         -0.31420        2.83115        0.00722
O         -0.12537        4.25046        0.10513
O         -1.68079        2.32047       -0.08322
O          0.51054        2.29883       -1.23765
O          0.40729        2.12599        1.22713
H          0.72830        1.33385       -1.09319
H          0.69189        1.19832        0.94165
N          3.68324       -1.04677        0.09815
C          4.61941       -1.11036       -1.03715
C          4.29986       -1.13775        1.43352
H          3.07524       -0.21123        0.03649
H          5.14699       -2.06511       -1.01232
H          4.04804       -1.03652       -1.96270
H          5.33758       -0.29034       -0.97689
H          4.81098       -2.09708        1.52741
H          5.01311       -0.32303        1.57271
H          3.50987       -1.07363        2.18218
H         -4.18094       -0.13225       -0.98310
H         -2.54131       -0.67281       -1.46339
H         -4.11090       -2.62158       -1.33878
H         -2.78895       -2.73478       -0.17341
H         -5.57551       -2.09005        0.44188
H         -4.55972       -3.11881        1.20631
H         -2.50925        0.83028        0.44703
H         -3.42191       -0.32365        1.30949
C         -3.31386       -0.73457       -0.69674
C         -3.69932       -2.18120       -0.42211
N         -2.75083       -0.16726        0.55379
N         -4.61150       -2.22996        0.72413
H         -1.84532       -0.66882        0.80032
