28
2sa1a1dma_14.log	Energy: -999030.7790018
S          1.37554        1.02346       -0.22060
O          0.68576        0.59359        1.03810
O          1.45796       -0.10799       -1.17957
O          0.75506        2.24214       -0.76489
O          2.84915        1.41490        0.14629
H          3.38390        0.55149        0.30135
S         -1.16765       -2.03642       -0.00138
O         -1.82818       -3.29899        0.15130
O         -1.98319       -0.82972       -0.18882
O         -0.23184       -1.80256        1.24431
O         -0.16995       -2.15258       -1.21413
H          0.16076       -0.86913        1.21654
H          0.41915       -1.34020       -1.27169
N         -1.83958        1.90272        0.04653
C         -2.89105        2.37001       -0.88024
C         -1.97993        2.37848        1.44033
H         -1.82900        0.86306        0.04296
H         -2.86289        3.45887       -0.93920
H         -2.70341        1.93990       -1.86373
H         -3.86412        2.03820       -0.51583
H         -1.97518        3.46935        1.44887
H         -2.91624        2.00275        1.85531
H         -1.13158        1.99530        2.00698
H         -0.89421        2.17377       -0.31049
N          4.03904       -0.93211        0.40635
H          5.05051       -0.98617        0.34762
H          3.64426       -1.41351       -0.39791
H          3.74329       -1.43166        1.23957
