36
2sa1dma1eda_171.log	Energy: -1083073.7460423
S         -1.67065        1.00486        0.17618
O         -2.92460        1.79728        0.00237
O         -0.48220        1.84481        0.38388
O         -1.85716       -0.06138        1.17291
O         -1.51479        0.30114       -1.25633
H         -4.46531       -0.31643        1.55901
H         -0.59539       -0.06910       -1.36114
S          2.15295       -0.15781       -0.82691
O          3.41934       -0.23061       -1.55490
O          0.95498       -0.60381       -1.55216
O          2.25932       -0.82872        0.51657
O          1.97892        1.40247       -0.51181
H          3.62072       -0.67133        1.01677
H          1.06807        1.58068       -0.15114
N          4.67808       -0.51530        1.29679
C          5.00679        0.90894        1.04109
C          5.50171       -1.46317        0.51041
H          4.76318       -0.71650        2.29155
H          4.84899        1.09795       -0.02118
H          4.32605        1.53506        1.61751
H          6.04369        1.10599        1.32100
H          5.28757       -1.28020       -0.54344
H          6.56049       -1.30764        0.72818
H          5.20739       -2.48122        0.76666
H         -3.38916       -1.14082       -0.99856
H         -4.63976       -2.37052       -1.18355
H         -5.51004        0.05153       -1.14220
H         -6.26648       -1.04530        0.04905
H         -4.09134        0.98229        0.51981
H         -5.63422        0.84946        1.26649
H         -3.95208       -3.19563        0.81502
H         -2.88061       -1.94320        1.00213
C         -4.24021       -1.61512       -0.50049
C         -5.33371       -0.56596       -0.25942
N         -3.84155       -2.19191        0.78126
N         -4.87889        0.31071        0.85136
