36
2sa1dma1eda_04.log	Energy: -1083093.3656091
S          1.63455        1.87167       -0.16863
O          0.36258        2.61886       -0.15079
O          2.22512        1.63331        1.14790
O          1.59842        0.64377       -1.00500
O          2.66404        2.80396       -1.01141
H          2.66949        3.68271       -0.60803
S         -0.85879       -1.83128       -0.48416
O         -0.67809       -1.04088        0.77736
O          0.25075       -2.79943       -0.63081
O         -2.20052       -2.34676       -0.68439
O         -0.68405       -0.73209       -1.66453
H          0.14692       -0.22194       -1.52184
N          2.35904       -1.55810        0.56533
C          3.68809       -1.96954        0.07244
C          2.24219       -1.46390        2.03685
H          2.12148       -0.64332        0.13851
H          3.92904       -2.95713        0.46818
H          3.66002       -2.00361       -1.01664
H          4.43183       -1.24213        0.40041
H          2.50295       -2.42885        2.47495
H          2.90862       -0.67970        2.39562
H          1.20776       -1.21193        2.26611
H          1.61638       -2.19298        0.18510
H         -3.25895        2.28441       -0.67205
H         -2.45933        0.82525       -1.31756
H         -4.87386        0.37854       -0.76183
H         -3.76064       -0.61874        0.17093
H         -5.29766        1.66119        1.17332
H         -5.03510        0.20402        1.86602
H         -1.16122        1.97391        0.43874
H         -2.44145        1.58750        1.51010
C         -2.94478        1.26199       -0.44383
C         -4.11474        0.40686        0.02905
N         -1.94523        1.32922        0.65223
N         -4.60646        0.93121        1.30674
H         -1.50058        0.38182        0.79084
