39
2sa1eda1tma_55.log	Energy: -1107746.9958801
S         -2.54392       -0.41799        0.05898
O         -2.53381       -1.30563        1.22468
O         -2.95530        0.96337        0.32174
O         -1.30131       -0.51947       -0.75629
O         -3.64193       -1.03971       -0.98338
H         -4.51483       -0.95398       -0.57693
S          2.84612        0.40552       -0.15012
O          1.55356       -0.11363        0.33027
O          3.78374       -0.60850       -0.62893
O          2.68296        1.56992       -1.05134
O          3.49294        1.01448        1.23056
H          4.40881        1.25817        1.04145
H         -0.78815        1.80943        1.16700
H          0.83375        2.51917        1.07339
H         -1.06726        4.16546        1.59453
H         -0.07963        4.62430        0.19900
H         -2.63675        3.18589       -0.05232
H         -2.34231        4.75256       -0.49868
H         -0.35135        0.99399       -0.81747
H         -0.65172        2.54157       -1.36886
C         -0.15401        2.50109        0.61318
C         -0.79983        3.88457        0.56679
N         -0.02655        1.97765       -0.77707
N         -1.92301        3.84135       -0.36467
H          0.96439        1.99280       -1.08990
N          0.26398       -2.69897        0.03855
C         -0.87301       -3.58043       -0.33444
H         -1.74654       -3.28203        0.24462
H         -1.07779       -3.45238       -1.39728
H         -0.59900       -4.61584       -0.12139
C          1.48886       -3.04066       -0.73057
H          1.27424       -2.92671       -1.79368
H          2.29682       -2.36522       -0.45164
H          1.75468       -4.07753       -0.51308
C          0.50416       -2.70760        1.50663
H          1.30347       -1.99857        1.71663
H         -0.41686       -2.38970        1.99665
H          0.77877       -3.72056        1.80954
H         -0.02264       -1.72978       -0.20883
