28
2sa1a1dma_76.log	Energy: -998997.0896750
S          2.57847       -0.13131       -0.10447
O          3.97987        0.16908       -0.16542
O          1.82066        0.03661        1.12268
O          1.78019        0.78905       -1.15477
O          2.37274       -1.57874       -0.66949
H          2.29412        0.89502       -1.96874
H          1.43605       -1.88647       -0.49092
S         -1.23960       -1.43065        0.28594
O         -2.47080       -2.07889        0.66855
O         -0.09245       -2.25237       -0.09352
O         -1.49669       -0.42725       -0.87495
O         -0.81299       -0.51615        1.50703
H         -2.54554       -0.18897       -0.93505
H          0.13764       -0.25779        1.42836
N         -0.60993        2.69847       -0.29573
C         -2.04074        2.78057       -0.09001
C          0.14522        3.01329        0.90498
H         -0.36195        1.77288       -0.62864
H         -2.31281        3.80735        0.17913
H         -2.55898        2.53622       -1.02327
H         -2.41181        2.11444        0.71326
H         -0.00762        4.06690        1.16412
H         -0.14214        2.40541        1.78144
H          1.21051        2.86244        0.71931
N         -4.00956        0.00250       -0.94608
H         -4.42375        0.09016       -1.86893
H         -4.28927        0.80678       -0.39202
H         -4.38098       -0.83364       -0.49974
