18
2sa1a_14.log	Energy: -914180.0111780
S         -2.12685       -0.13901        0.08234
O         -2.88686        1.07491        0.24909
O         -1.17966       -0.58048        1.09147
O         -3.16525       -1.34710       -0.05994
O         -1.44603       -0.15737       -1.33045
H         -4.01773       -0.99301       -0.35206
H         -0.45589       -0.22620       -1.24856
S          2.11794       -0.14569       -0.07974
O          2.86924        1.07723       -0.21438
O          1.17075       -0.56398       -1.09950
O          3.16385       -1.35137        0.02521
O          1.44271       -0.21596        1.33456
H          4.01680       -0.99907        0.31808
H          0.45123       -0.25865        1.25393
N          0.03558        2.24303        0.00613
H         -0.88510        2.64563        0.15414
H          0.37576        2.57550       -0.89072
H          0.65828        2.62269        0.71226
