26
2sa1eda_08.log	Energy: -998260.2818178
S          2.34686       -1.19409        0.00255
O          1.06881       -1.70628       -0.49342
O          2.10277       -0.47883        1.38392
O          3.45471       -2.08825        0.14521
O          2.80815       -0.01724       -0.95657
H          2.10865        0.67421       -1.03145
S         -0.37604        2.05037        0.08675
O         -1.53941        1.68322       -0.74085
O         -0.34889        3.40095        0.60397
O         -0.04591        0.95608        1.03002
O          0.92186        1.97326       -0.96989
H          1.30284        0.12178        1.33302
H          1.18191        2.87833       -1.18923
H         -2.04905       -2.36284        0.97950
H         -1.82950       -0.65647        1.43934
H         -4.26799       -1.32297        1.49881
H         -3.94931       -0.05175        0.31557
H         -4.45201       -2.86834       -0.29730
H         -5.10021       -1.53232       -0.98195
H         -0.62774       -1.34058       -0.60265
H         -2.15690       -1.55751       -1.32435
C         -2.27280       -1.32885        0.70410
C         -3.77241       -1.10739        0.54422
N         -1.62437       -1.05949       -0.60383
N         -4.25349       -1.91408       -0.57847
H         -1.65424       -0.03288       -0.80092
