28
2sa1a1dma_38.log	Energy: -999024.6388154
S          1.71815       -0.50322        0.62275
O          2.88019       -1.04821        1.28172
O          0.60984        0.02682        1.43013
O          2.14070        0.71308       -0.29308
O          1.17226       -1.56951       -0.36633
H          3.03298        0.46649       -0.77260
H          0.21820       -1.29692       -0.71008
S         -2.30889       -0.90970       -0.28735
O         -3.25427       -1.84845       -0.83406
O         -1.04252       -0.72023       -1.08676
O         -2.84544        0.43486        0.05508
O         -1.80910       -1.56705        1.10286
H         -1.69231        1.53499        0.06296
H         -1.06739       -1.04335        1.45979
N         -0.81321        2.13269        0.08752
C         -1.01088        3.29690        0.97266
C         -0.42446        2.46219       -1.30079
H         -0.11342        1.50081        0.50514
H         -1.80926        3.92102        0.56933
H         -1.29196        2.93911        1.96316
H         -0.08457        3.87033        1.03481
H         -1.19378        3.10080       -1.73723
H          0.53899        2.97316       -1.29685
H         -0.35763        1.52628       -1.85456
N          4.38460       -0.12194       -1.32819
H          4.21968       -0.80114       -2.06553
H          4.77011       -0.62399       -0.53100
H          5.08120        0.53897       -1.65670
