31
2sa1ma1dma_81.log	Energy: -1023671.0039575
S         -0.39640       -1.32573       -0.55657
O          0.86985       -2.06566       -0.76111
O         -1.59854       -2.17074       -0.69758
O         -0.44521       -0.95318        1.02924
O         -0.46444       -0.05500       -1.27832
H          0.38343       -0.47583        1.25423
H         -3.31209        0.40370        0.13840
S          3.04245        0.40067        0.33593
O          4.38177        0.73210        0.74394
O          1.96845        0.33129        1.31303
O          2.52568        1.51123       -0.71016
O          3.10660       -0.90167       -0.51319
H          3.22327        1.68121       -1.35934
H          2.18694       -1.34816       -0.64275
N         -3.58885       -0.63477        0.27072
H         -4.49424       -0.78857       -0.16747
C         -3.61400       -0.97321        1.71259
H         -3.92905       -2.00836        1.84327
H         -2.59941       -0.85821        2.09307
H         -4.29762       -0.30383        2.23660
H         -2.87616       -1.24358       -0.21432
N         -2.90078        2.03009       -0.01320
C         -2.75127        2.28898       -1.45257
C         -1.65999        2.31175        0.72540
H         -3.63549        2.63174        0.35042
H         -2.00713        1.59588       -1.85174
H         -3.70707        2.11858       -1.95656
H         -2.42490        3.31779       -1.65668
H         -0.86926        1.66830        0.33703
H         -1.34632        3.35878        0.61781
H         -1.80598        2.09211        1.78611
