36
2sa1dma1eda_166.log	Energy: -1083071.8482027
S          0.24987       -1.99307       -0.94612
O          1.25166       -2.22083        0.09717
O         -1.14148       -2.08563       -0.40705
O          0.46291       -0.80858       -1.78446
O          0.36521       -3.20608       -2.00994
H          0.22202       -4.03957       -1.54022
S         -2.53706        0.40776        0.83769
O         -1.34073        1.14024        0.43808
O         -3.59768        1.09714        1.51129
O         -3.14427       -0.29369       -0.45050
O         -2.09222       -0.82248        1.73741
H         -2.47556       -0.93175       -0.80074
H         -1.56576       -1.44399        1.17217
N          2.93250       -0.10945        1.33950
C          2.17570       -0.06540        2.59135
C          4.37105        0.03834        1.53672
H          2.72569       -0.99709        0.88073
H          2.28281        0.92288        3.05087
H          1.11709       -0.23978        2.38289
H          2.51361       -0.81983        3.31534
H          4.58457        1.03284        1.94154
H          4.78138       -0.70761        2.23309
H          4.88517       -0.06054        0.57755
H          2.44085        3.15301       -0.70673
H          2.51314        1.91978       -1.99571
H          1.07660        3.89047       -2.61421
H          0.17336        2.37502       -2.61089
H         -0.58493        4.57494       -1.25236
H         -0.97212        3.07239       -0.71645
H          2.09854        0.93493        0.28069
H          0.64217        1.81598        0.27808
C          1.86204        2.42285       -1.27677
C          0.68119        3.10460       -1.96462
N          1.35357        1.40461       -0.33263
N         -0.20080        3.68715       -0.95878
H          0.89255        0.63354       -0.85316
