39
2sa1eda1tma_115.log	Energy: -1107728.1101794
S          3.36976       -0.58109       -0.02501
O          4.61813       -1.25983       -0.25320
O          2.28383       -0.69333       -0.98720
O          2.71428       -1.15757        1.33477
O          3.66599        0.90106        0.31111
H          3.39399       -1.18460        2.02320
H          2.83854        1.53148        0.19764
S          0.32886        2.00869       -0.03592
O         -0.65629        3.05224       -0.24996
O          1.74668        2.45155       -0.04808
O          0.05142        1.12589        1.12706
O          0.16701        1.04426       -1.33942
H         -1.54484        0.62569        1.08117
H          0.92509        0.42091       -1.34411
H         -3.00344        2.01987       -0.10812
H         -2.49611        0.74781       -1.20804
H         -4.98502        1.05106       -1.30749
H         -4.56839       -0.55843       -0.70838
H         -5.44621        1.68213        0.96389
H         -6.09793        0.18795        0.84957
H         -3.13288        0.24560        1.60602
H         -2.28442       -0.79975        0.54094
C         -3.08700        0.95015       -0.31323
C         -4.53610        0.50990       -0.46448
N         -2.47656        0.21416        0.82168
N         -5.22634        0.70273        0.81159
N         -1.65917       -2.27802       -0.07956
C         -1.47654       -2.07024       -1.51685
H         -2.45354       -1.98361       -2.00323
H         -0.91883       -1.14565       -1.68235
H         -0.92638       -2.90201       -1.98413
C         -0.36084       -2.34938        0.59927
H          0.18453       -1.41460        0.45676
H         -0.51717       -2.49406        1.67195
H          0.25588       -3.17663        0.21697
C         -2.46464       -3.46615        0.18164
H         -2.61692       -3.58200        1.25828
H         -3.44260       -3.36339       -0.29859
H         -1.98463       -4.38112       -0.20182
