39
2sa1eda1tma_51.log	Energy: -1107745.8899135
S          2.98651        0.33172       -0.04489
O          2.85119        1.65435       -0.70001
O          3.99030        0.27261        1.00864
O          1.67149       -0.25715        0.27180
O          3.51582       -0.69385       -1.22543
H          4.45740       -0.52183       -1.35701
S         -2.60161       -0.22578       -0.10891
O         -2.73424       -0.99411        1.13204
O         -2.96631        1.18925       -0.01856
O         -1.29413       -0.45641       -0.78800
O         -3.62859       -0.90278       -1.18666
H         -4.53002       -0.69489       -0.90583
H         -0.83272        1.74800        1.21639
H          0.85822        2.27761        1.32706
H         -0.88962        4.08838        1.82019
H          0.26160        4.52637        0.54864
H         -2.41317        3.42952       -0.01385
H         -1.88894        4.96732       -0.32824
H         -0.18808        1.00411       -0.75691
H         -0.44830        2.59592       -1.21243
C         -0.07760        2.40395        0.78328
C         -0.56450        3.85145        0.79813
N          0.13258        1.97855       -0.62789
N         -1.59897        4.00376       -0.22068
H          1.14394        2.01547       -0.87252
N         -0.03619       -2.70004        0.20714
C         -1.20991       -3.57611       -0.04296
H         -2.06878       -3.15960        0.48306
H         -1.41093       -3.59366       -1.11441
H         -0.98196       -4.58194        0.31621
C          1.16783       -3.18038       -0.51745
H          0.93436       -3.24028       -1.58090
H          1.97560       -2.46814       -0.36292
H          1.43259       -4.16892       -0.13549
C          0.21600       -2.52880        1.66381
H          1.05463       -1.84312        1.77872
H         -0.68422       -2.10268        2.10825
H          0.43753       -3.50628        2.09826
H         -0.29447       -1.75832       -0.16473
