28
2sa1a1dma_08.log	Energy: -999034.9766134
S          2.24827       -0.55112       -0.26825
O          2.17143       -2.03361       -0.23729
O          1.43998        0.00007        0.88033
O          3.56562        0.02450       -0.41446
O          1.43982       -0.06883       -1.57684
H          0.49260       -0.32440       -1.49716
S         -2.20750       -0.42169       -0.15830
O         -2.08477       -1.74053        0.49760
O         -2.25262        0.71840        0.76829
O         -1.25510       -0.24493       -1.27200
O         -3.68389       -0.40152       -0.81973
H         -3.75260       -1.14394       -1.43585
N          0.02501        2.23893        0.44106
C          0.32311        3.17341        1.54424
C          0.15972        2.82586       -0.91082
H          0.65634        1.39947        0.53778
H         -0.37434        4.01192        1.51168
H          0.21831        2.64356        2.49086
H          1.34694        3.53482        1.43887
H         -0.45522        3.72542       -0.97328
H          1.20774        3.06664       -1.09187
H         -0.17544        2.08806       -1.63783
H         -0.92636        1.83429        0.55714
N          0.29699       -2.46387        1.59125
H          1.02246       -2.50549        0.81863
H          0.57590       -1.64884        2.14077
H         -0.64350       -2.25849        1.17564
H          0.28003       -3.30770        2.15548
