28
2sa1a1dma_53.log	Energy: -999019.6438588
S         -0.72835       -1.58115       -0.29140
O         -1.93904       -2.38173       -0.33643
O          0.55279       -2.33198       -0.32686
O         -0.69003       -0.43692       -1.23687
O         -0.78616       -0.89671        1.18942
H         -1.42981        0.90862       -0.65326
H          0.09520       -0.50765        1.37646
S          2.58877        0.40585        0.20015
O          3.93138        0.87339        0.41415
O          1.63404        0.38756        1.29963
O          1.86967        1.36826       -0.88293
O          2.65329       -0.96809       -0.51334
H          2.41788        1.41291       -1.67945
H          1.76891       -1.52134       -0.46361
N         -2.03392        1.62464       -0.17497
C         -2.79918        2.37458       -1.18747
C         -1.20098        2.46377        0.70908
H         -2.70527        1.02485        0.38802
H         -2.11252        2.92698       -1.83078
H         -3.37064        1.66688       -1.78874
H         -3.47871        3.07041       -0.69162
H         -0.50402        3.04489        0.10375
H         -1.84136        3.13101        1.28907
H         -0.63181        1.81547        1.37379
N         -3.71446       -0.25132        1.08359
H         -4.72792       -0.22069        1.12595
H         -3.37048       -0.42499        2.02396
H         -3.44422       -1.07622        0.54231
