39
2sa1eda1tma_17.log	Energy: -1107752.0611554
S          0.06593       -1.80760       -0.91075
O          0.15786       -1.10780        0.43900
O          1.04630       -2.88164       -1.02050
O         -1.32851       -2.11665       -1.21722
O          0.58874       -0.70297       -1.95174
H          0.15697        0.17035       -1.76488
S          0.13067        2.46260       -0.21890
O         -0.72580        2.60988        0.98127
O          1.52076        2.11125        0.04802
O         -0.53836        1.62951       -1.24870
O          0.24746        3.95003       -0.86280
H         -0.64150        4.25036       -1.09432
H         -3.83258        1.04402        0.11725
H         -2.69780        0.19199       -0.95622
H         -4.77410       -1.17603       -0.53239
H         -3.29939       -1.96521        0.03256
H         -5.32402       -0.68071        1.72276
H         -4.61168       -2.14113        1.89907
H         -1.73692        1.20337        1.14064
H         -2.58277       -0.04422        1.94776
C         -3.19082        0.16398        0.01461
C         -3.97499       -1.12619        0.21736
N         -2.14733        0.24850        1.06659
N         -4.45262       -1.18600        1.60261
H         -1.33754       -0.38120        0.85301
N          2.78903       -0.74967        0.90500
C          3.13437       -2.13408        1.31471
H          2.61756       -2.36155        2.24768
H          2.79062       -2.81523        0.53523
H          4.21514       -2.20554        1.45712
C          3.43466       -0.38728       -0.38657
H          3.13557       -1.12124       -1.13479
H          3.07873        0.60062       -0.67714
H          4.51847       -0.39167       -0.24699
C          3.08303        0.24209        1.96817
H          2.72812        1.21674        1.63312
H          2.55678       -0.05352        2.87690
H          4.16006        0.25724        2.15133
H          1.74582       -0.75145        0.73901
