31
2sa1a1tma_35.log	Energy: -1023676.3540467
S          3.03070        0.39858       -0.03352
O          4.41581        0.77877        0.04145
O          2.19307        0.40199        1.15428
O          2.26987        1.42027       -1.02751
O          2.93810       -0.96450       -0.77295
H          2.81887        1.55873       -1.81265
H          2.02538       -1.43156       -0.64505
S         -0.47148       -1.44796        0.04704
O          0.74715       -2.15995       -0.40112
O         -1.67380       -2.25799        0.16618
O         -0.18163       -0.95711        1.55799
O         -0.67755       -0.19670       -0.74246
H          0.68394       -0.49527        1.56672
H         -2.18600        0.37998       -0.48097
N         -0.53471        2.47233        0.73457
H         -0.19359        1.72480        0.13051
H         -0.15245        2.27267        1.65477
H         -0.07502        3.32352        0.42466
N         -3.19286        0.61880       -0.26174
C         -3.32712        0.51148        1.21526
H         -3.05838       -0.50296        1.51130
H         -2.63835        1.22804        1.66304
H         -4.35968        0.73529        1.49339
C         -3.44846        2.00130       -0.73251
H         -2.75087        2.66038       -0.21188
H         -3.27303        2.04428       -1.80832
H         -4.48594        2.26564       -0.51406
C         -4.02606       -0.38805       -0.96557
H         -3.85516       -0.29344       -2.03836
H         -3.71422       -1.37893       -0.63361
H         -5.07824       -0.20568       -0.73569
