39
2sa1eda1tma_131.log	Energy: -1107718.5235541
S         -1.25222       -0.50638        0.34758
O         -1.54539        0.86710       -0.09047
O         -0.16886       -0.62846        1.33961
O         -2.49750       -1.20135        0.77763
O         -0.80065       -1.33227       -0.94767
H         -3.71088       -0.40164        0.28749
H          0.18219       -1.36109       -1.01707
S          2.95560       -1.21476       -0.15945
O          4.02895       -0.35429       -0.60218
O          1.89968       -1.62802       -1.06300
O          3.63896       -2.59870        0.30460
O          2.37755       -0.68841        1.18616
H          4.53561       -2.40859        0.61397
H          1.36412       -0.60474        1.17631
H          1.18022        3.57145       -0.45042
H          0.63071        2.46132        0.82376
H          2.78714        3.62125        1.32231
H          2.90173        1.85267        1.38189
H          4.66077        3.20575        0.09000
H          4.06039        1.87277       -0.62506
H          0.38464        1.37860       -1.21016
H          1.93749        1.64861       -1.66102
C          1.39339        2.61436        0.05258
C          2.76476        2.71221        0.71040
N          1.33371        1.47408       -0.86246
N          3.81725        2.80662       -0.30505
N         -4.55889        0.14559       -0.08634
C         -4.33582        0.31829       -1.54346
H         -3.40397        0.86715       -1.67891
H         -4.24139       -0.66707       -2.00118
H         -5.18013        0.85879       -1.97815
C         -5.75901       -0.67055        0.20035
H         -5.65007       -1.63916       -0.28841
H         -5.83816       -0.81840        1.27770
H         -6.64943       -0.15976       -0.17391
C         -4.57756        1.44837        0.62250
H         -4.70603        1.26405        1.68957
H         -3.61691        1.93499        0.45273
H         -5.40299        2.05626        0.24384
