30
2sa1a1eda_151.log	Energy: -1033753.4742608
S         -0.21681        2.16364       -0.15078
O          1.01621        2.52288        0.55450
O         -0.05525        1.31689       -1.33613
O         -1.24820        1.63523        0.79373
O         -0.83725        3.53219       -0.75741
H         -0.88988        4.18453       -0.04555
S         -2.06731       -1.62656        0.02332
O         -3.08003       -2.62994       -0.16562
O         -1.02677       -1.78985        1.01841
O         -1.21396       -1.46087       -1.35170
O         -2.77802       -0.24724        0.14605
H         -1.76520       -1.06245       -2.04053
H         -2.13643        0.52703        0.39497
H          2.85262       -0.10921       -1.73594
H          2.73903        0.91437       -0.29305
H          4.89363       -0.37289       -0.29939
H          3.86885       -0.84701        1.05851
H          4.26149       -2.40525       -1.38998
H          4.41497       -2.88762        0.16489
H          0.73398       -0.40081       -0.78490
H          1.60558       -1.79352       -0.40934
C          2.79068       -0.11835       -0.64444
C          3.95777       -0.88107       -0.03223
N          1.52817       -0.78549       -0.25485
N          3.89159       -2.28022       -0.45357
H          1.34174       -0.60358        0.78208
N          1.04369        0.02062        2.35844
H          0.06426       -0.23708        2.45700
H          1.08352        1.03504        2.27130
H          1.52902       -0.25704        3.20441
