24
2sa1dma_41.log	Energy: -963492.0493261
S          1.27221       -1.39830       -0.05183
O          2.69356       -1.58900       -0.08822
O          0.56834       -0.74773       -1.14243
O          0.53848       -2.81559        0.08633
O          0.93465       -0.67988        1.30536
H          1.07169       -3.40309        0.64292
H          0.00974       -0.31110        1.29539
S         -2.45833        0.44101        0.04308
O         -3.53796        1.38148        0.10093
O         -1.52085        0.30059        1.14395
O         -3.03515       -1.04265       -0.15329
O         -1.67476        0.70220       -1.29475
H         -3.80635       -1.01597       -0.73956
H         -0.82866        0.18352       -1.30977
N          2.69009        2.04693        0.52474
C          3.31331        1.88217       -0.77740
C          1.33372        2.55398        0.44216
H          2.70596        1.17028        1.03260
H          3.45381        2.86559       -1.23989
H          4.29697        1.42145       -0.65902
H          2.72240        1.26334       -1.47591
H          1.34966        3.57812        0.05357
H          0.67736        1.96248       -0.22258
H          0.88205        2.58118        1.43734
