28
2sa1a1dma_60.log	Energy: -999017.8618951
S         -0.64916       -1.25409       -0.19817
O         -1.98135       -1.67273       -0.62264
O         -0.39841        0.18996       -0.62963
O         -0.33657       -1.41950        1.22033
O          0.36759       -2.12219       -1.06280
H         -2.21821       -0.78393        2.14732
H          1.27998       -1.79228       -0.90691
S          3.00940        0.49199       -0.03059
O          4.17216        1.27363       -0.36591
O          2.76346       -0.79288       -0.65774
O          3.06504        0.16425        1.54504
O          1.75266        1.40437       -0.16753
H          3.51879        0.89108        1.99445
H          0.88471        0.86407       -0.32240
N         -2.89791        1.22954       -0.18792
C         -2.94314        2.64993        0.20432
C         -3.82152        0.85566       -1.27965
H         -1.92476        0.96503       -0.46262
H         -3.94461        2.89682        0.56125
H         -2.21735        2.81785        1.00071
H         -2.69308        3.27665       -0.65338
H         -4.84976        1.03869       -0.96187
H         -3.59618        1.45075       -2.16631
H         -3.66669       -0.20207       -1.49354
N         -3.19401       -0.55358        1.94667
H         -3.67868       -0.41950        2.82798
H         -3.56973       -1.38796        1.50214
H         -3.09357        0.61380        0.66120
