30
2sa1a1eda_34.log	Energy: -1033766.8221465
S          2.49440       -0.50164        0.09981
O          2.18013       -1.28145       -1.10590
O          2.98313        0.86353       -0.19009
O          1.43039       -0.56128        1.12258
O          3.72817       -1.24070        0.84516
H          4.52383       -1.11438        0.31030
S         -1.48892        1.51842        0.27449
O         -0.88426        0.89835       -0.95212
O         -0.85907        2.82391        0.55050
O         -2.94018        1.46415        0.31112
O         -1.05139        0.52295        1.48278
H         -0.07533        0.44529        1.51212
H         -1.69645       -3.47103       -1.12596
H         -1.05964       -3.57326        0.53585
H         -3.49824       -3.05107        0.57807
H         -2.58160       -1.67308        1.18853
H         -4.14157       -1.75510       -1.20966
H         -3.50530       -0.43973       -0.42596
H          0.26702       -2.11482       -1.09900
H         -1.00607       -1.03557       -0.99291
C         -1.50812       -2.91038       -0.20791
C         -2.80051       -2.25699        0.28779
N         -0.53636       -1.83646       -0.52620
N         -3.31981       -1.38437       -0.75319
H         -0.10224       -1.43576        0.31937
N          1.18783        2.60993       -1.24656
H          1.49885        3.27504       -1.94700
H          1.97611        2.03893       -0.86052
H          0.66370        3.06194       -0.47335
H          0.48420        1.93882       -1.60860
