30
2sa1a1eda_169.log	Energy: -1033751.8760632
S          0.85502        0.96713        0.12222
O         -0.12870        0.49667        1.11929
O          1.82544        1.94092        0.63270
O          1.53402       -0.17775       -0.56219
O          0.04590        1.75770       -1.00208
H         -0.73641        1.22295       -1.27874
S         -2.96071       -0.45186       -0.55993
O         -3.91225       -1.46569       -0.95763
O         -2.07362        0.13274       -1.55603
O         -3.71154        0.75045        0.11822
O         -2.10598       -1.07856        0.60406
H         -4.47575        0.37563        0.69417
H         -1.31181       -0.48966        0.81913
H          5.28792        0.37015        1.35424
H          3.58897       -0.08506        1.62348
H          5.05549       -2.12438        1.44870
H          3.85503       -2.05571        0.15524
H          6.71327       -1.50879       -0.12607
H          5.73231       -2.40056       -1.08290
H          3.81774        1.56014       -0.12977
H          4.73677        0.43125       -1.02815
C          4.42309       -0.14110        0.92254
C          4.75943       -1.57835        0.54449
N          4.02035        0.57363       -0.31232
N          5.77597       -1.56744       -0.50902
H          3.07133        0.18684       -0.62300
N         -5.63794       -0.46186        1.45575
H         -6.53123        0.00206        1.58111
H         -5.33491       -0.82288        2.35465
H         -5.76754       -1.25177        0.82750
