36
2sa1dma1eda_231.log	Energy: -1083064.4940239
S          0.11068       -1.81723        0.05873
O          1.24230       -2.72539        0.01981
O         -1.23043       -2.44983        0.01041
O          0.17675       -0.80330        1.14790
O          0.24633       -0.96470       -1.31618
H          1.64491       -0.14390        1.30628
H         -0.53713       -0.37651       -1.37740
S         -3.14570        0.42265       -0.21084
O         -4.42535        0.97670       -0.56693
O         -1.98333        0.64545       -1.05556
O         -2.69860        1.04526        1.21074
O         -3.33402       -1.08639        0.09361
H         -3.46110        1.03728        1.80666
H         -2.44615       -1.62855        0.09386
N          1.60401        2.64785        0.26515
C          0.34294        2.62760        1.01452
C          1.39085        2.44077       -1.16889
H          2.06459        3.54187        0.40290
H         -0.11718        1.63968        0.92537
H          0.53980        2.82286        2.07310
H         -0.38049        3.36915        0.64848
H          1.06359        1.41071       -1.33558
H          0.62689        3.11396       -1.58256
H          2.33462        2.59177       -1.69495
H          4.59763       -0.38200        1.30279
H          3.35060       -1.65196        1.17434
H          4.30503       -1.44295       -0.99654
H          2.71346       -0.70606       -1.08024
H          5.25796        0.74664       -0.96219
H          4.05902        0.87793       -2.05951
H          2.75868        0.50880        2.36093
H          2.52511        1.22382        0.85629
C          3.63403       -0.64624        0.85766
C          3.71466       -0.58054       -0.65856
N          2.60532        0.29732        1.37746
N          4.25015        0.71326       -1.07791
