33
2sa1ma1eda_01.log	Energy: -1058430.8924746
S         -1.21867        1.52672       -0.57715
O         -0.38037        2.67225       -0.93775
O         -0.77272        0.96670        0.76294
O         -2.66304        1.66997       -0.66534
O         -0.89107        0.32766       -1.61265
H          0.07094        0.10432       -1.56472
S          2.30296       -1.24442       -0.19237
O          1.68635       -0.31792       -1.17306
O          3.08165       -0.49329        0.81574
O          1.39857       -2.26068        0.34589
O          3.37167       -2.13158       -1.02526
H          4.03276       -1.53783       -1.40594
N          1.77640        1.95800        0.79718
H          1.68494        2.23883       -0.18314
H          0.82819        1.56759        1.00597
C          2.10972        3.10291        1.66645
H          2.14670        2.76275        2.70094
H          3.07935        3.51023        1.38075
H          1.33820        3.86412        1.55330
H          2.44609        1.16468        0.85892
H         -2.64776       -3.18342        1.11284
H         -2.14236       -2.05475        2.39571
H         -4.51902       -1.62342        1.53756
H         -3.44039       -0.23222        1.39661
H         -4.68039       -1.61331       -0.74370
H         -3.75206       -0.24093       -0.78702
H         -0.44217       -2.23689        0.53351
H         -1.66281       -1.65481       -0.47378
C         -2.43810       -2.13716        1.34783
C         -3.63769       -1.23939        1.01380
N         -1.31519       -1.69102        0.49542
N         -3.81654       -1.19175       -0.43267
H         -1.05376       -0.70142        0.72250
