39
2sa1eda1tma_40.log	Energy: -1107746.8919959
S         -0.72145        1.62088        0.62275
O         -0.85297        0.30115        1.57289
O         -0.55032        1.09329       -0.75070
O         -1.98103        2.31682        0.85725
O          0.50507        2.32181        1.07629
H          1.72519        1.79195        0.09275
S          1.16641       -2.37394        0.03283
O         -0.18544       -2.72460       -0.42039
O          2.17218       -2.16475       -1.01104
O          1.18852       -1.28711        1.04957
O          1.61625       -3.72216        0.82927
H         -0.05037       -0.27946        1.44985
H          2.57976       -3.71502        0.89690
H         -3.98855       -1.65722       -1.52659
H         -4.02949       -2.14907        0.18704
H         -5.61830       -0.24730       -0.33113
H         -4.42027        0.17796        0.89090
H         -4.83646        1.53500       -1.46812
H         -3.49901        1.68966       -0.51351
H         -1.68812       -1.83857       -0.58973
H         -2.07012       -0.27024       -1.01728
C         -3.78630       -1.33726       -0.50252
C         -4.55288       -0.05384       -0.17472
N         -2.33926       -1.05331       -0.40017
N         -4.08141        1.02995       -1.02618
H         -2.07318       -0.72407        0.54219
N          2.63490        1.70125       -0.43205
C          3.54593        0.90782        0.43084
H          3.67728        1.43599        1.37596
H          3.08037       -0.06140        0.61172
H          4.50578        0.78982       -0.07692
C          2.38372        1.03056       -1.73550
H          2.12041       -0.01175       -1.55398
H          1.55793        1.53941       -2.23093
H          3.29757        1.08421       -2.33283
C          3.10550        3.09428       -0.61073
H          2.38102        3.63198       -1.22254
H          3.17429        3.57112        0.36714
H          4.08159        3.08577       -1.10076
