33
2sa1ma1eda_59.log	Energy: -1058427.3900179
S         -2.07821       -1.48738       -0.12358
O         -3.03868       -0.91431        0.84262
O         -1.75636       -0.50058       -1.19064
O         -0.91245       -2.14825        0.45406
O         -2.85701       -2.70325       -0.86398
H         -3.68261       -2.35869       -1.22970
S          0.93069        1.57250       -0.48684
O          0.38491        1.03977        0.82465
O          0.08140        2.65949       -0.97374
O          2.37253        1.78737       -0.43421
O          0.78123        0.32327       -1.49895
H         -0.15956        0.00873       -1.50032
N         -2.22302        1.73418        0.59140
H         -1.22766        1.49304        0.83294
H         -2.21256        1.78455       -0.42933
C         -2.64339        3.00559        1.20946
H         -3.66852        3.23727        0.92051
H         -2.58054        2.90776        2.29287
H         -1.96817        3.79027        0.86925
H         -2.79020        0.90483        0.84503
H          2.83600        0.16707        1.58181
H          2.98894       -1.35404        2.49268
H          4.99479       -0.75108        1.00617
H          4.32559       -2.35858        0.68993
H          3.64780        0.01928       -0.91849
H          4.44651       -1.34504       -1.42513
H          0.90850       -0.67405        0.97259
H          1.85857       -1.38491       -0.18527
C          2.91944       -0.91811        1.49531
C          4.11775       -1.28503        0.61534
N          1.66643       -1.37156        0.83510
N          3.77384       -0.98055       -0.76401
H          1.31549       -2.28545        1.11451
