30
2sa1a1eda_185.log	Energy: -1033746.6989470
S         -0.19245        0.97402       -0.51240
O          1.06323        1.53468       -1.05372
O         -1.40341        1.44850       -1.20025
O         -0.16048       -0.60294       -0.85955
O         -0.28783        1.08399        0.95921
H          0.72720       -0.95866       -0.62608
H         -1.97023        1.56773        1.42332
S          3.52029       -0.54995        0.18092
O          2.39041       -1.37179       -0.21565
O          4.86801       -1.03749        0.05851
O          3.44795        0.84616       -0.50777
O          3.22689       -0.22028        1.72965
H          2.48351        1.13610       -0.68869
H          4.01335        0.19102        2.11609
H         -5.53043       -1.77270       -0.02753
H         -5.45523       -0.09666       -0.59699
H         -3.91008       -1.62130       -1.85932
H         -3.05586       -0.29922       -1.07709
H         -2.94991       -3.08751       -0.31317
H         -1.79109       -1.91882       -0.28112
H         -5.28999       -0.41763        1.88568
H         -3.82333       -1.11246        1.59611
C         -4.88787       -0.88328       -0.08814
C         -3.62067       -1.21584       -0.88088
N         -4.49491       -0.41907        1.25427
N         -2.77119       -2.11312       -0.10138
N         -2.91159        1.83126        1.06617
H         -3.59599        1.00339        1.18679
H         -2.71222        1.97166        0.06137
H         -3.24827        2.68450        1.50147
