26
2sa1eda_109.log	Energy: -998224.4882008
S          0.63717        2.10677       -0.01512
O          1.77093        2.98144       -0.06207
O          0.56815        1.02747        0.95988
O         -0.70110        2.94484        0.26456
O          0.41370        1.53662       -1.45960
H         -0.67630        3.77579       -0.23397
H         -0.28493        0.83079       -1.45123
S         -2.15348       -0.94436       -0.05610
O         -1.51647       -0.29338       -1.18603
O         -2.76464       -2.23571       -0.17971
O         -1.14910       -1.01210        1.15261
O         -3.24604        0.12208        0.43598
H         -0.51960       -0.24389        1.13710
H         -3.87029       -0.31213        1.03659
H          1.12860       -1.12247       -0.63638
H          0.88512       -2.86089       -0.61699
H          1.37003       -2.11496        1.64746
H          2.73474       -3.07732        1.06717
H          2.67934       -0.15536        1.23794
H          3.73192       -1.18636        1.94799
H          3.39913       -1.57044       -1.36759
H          3.02233       -3.14545       -1.56587
C          1.64433       -2.08000       -0.49672
C          2.20499       -2.12723        0.92790
N          2.63111       -2.20855       -1.55883
N          3.16340       -1.04039        1.12247
