31
2sa1a1tma_27.log	Energy: -1023683.1761603
S         -1.26859       -1.80944       -0.20554
O         -2.38294       -2.68582       -0.47561
O          0.06107       -2.47158       -0.10419
O         -1.17810       -0.59937       -1.07343
O         -1.55730       -1.20638        1.28272
H         -1.53952        0.78131       -0.40439
H         -0.74987       -0.73005        1.56537
S          1.94243        0.31260        0.74791
O          3.15206        0.75849        1.39542
O          0.66479        0.47311        1.44534
O          1.75515        1.06653       -0.62541
O          2.14917       -1.17817        0.33531
H          2.54298        0.81180       -1.24644
H          1.25928       -1.68413        0.12390
N          3.78332        0.18442       -2.03322
H          3.74963       -0.80337       -1.79178
H          4.66221        0.55521       -1.68460
H          3.78042        0.26388       -3.04479
N         -1.96822        1.73701       -0.20984
C         -2.11445        1.93303        1.25352
H         -2.71502        1.11627        1.65368
H         -1.12404        1.90856        1.70658
H         -2.60068        2.89471        1.43473
C         -1.05898        2.74041       -0.81254
H         -0.08410        2.65678       -0.33388
H         -0.94994        2.51850       -1.87428
H         -1.48151        3.73854       -0.67374
C         -3.28556        1.69270       -0.88930
H         -3.12676        1.47982       -1.94613
H         -3.87524        0.88802       -0.44968
H         -3.79230        2.65215       -0.76236
