39
2sa1eda1tma_95.log	Energy: -1107737.2041282
S         -0.54791        1.92791        1.00419
O         -0.10897        1.66026       -0.39334
O         -2.01144        1.83478        1.15266
O          0.25318        1.19458        1.98587
O         -0.18114        3.47230        1.30424
H         -0.86477        4.03050        0.90840
S         -2.42130       -0.78198       -1.06112
O         -1.44855       -1.32371       -0.10954
O         -3.16371       -1.66719       -1.90853
O         -3.44992        0.09866       -0.25629
O         -1.66018        0.25431       -1.98079
H         -2.96592        0.72862        0.34839
H         -1.06700        0.83520       -1.41948
H          2.44597       -2.74757        0.87947
H          2.55483       -1.53042        2.17984
H          1.29956       -3.47537        2.95955
H          0.21167       -2.08918        2.86133
H         -0.37560       -4.42916        1.78275
H         -0.80686       -3.07060        0.97561
H          1.99950       -0.60709       -0.07207
H          0.49453       -1.39830        0.06365
C          1.87671       -2.04937        1.49713
C          0.79336       -2.80388        2.25979
N          1.28398       -1.02459        0.60451
N         -0.01574       -3.59351        1.34043
H          0.89503       -0.23912        1.15953
N          3.09703        0.17575       -1.12462
C          3.32912        1.48351       -0.50813
H          2.37234        1.99280       -0.37430
H          3.79586        1.35066        0.47226
H          3.98813        2.11270       -1.12768
C          4.34533       -0.56464       -1.28235
H          4.82061       -0.70041       -0.30645
H          4.14088       -1.54994       -1.71071
H          5.05376       -0.03879       -1.94309
C          2.40128        0.32178       -2.40385
H          2.19147       -0.66500       -2.82602
H          1.45549        0.84285       -2.24253
H          3.00197        0.89282       -3.12975
