30
2sa1a1eda_30.log	Energy: -1033765.4156468
S          1.97789       -1.46483       -0.15663
O          1.33604       -2.63834       -0.78933
O          2.14539       -0.32318       -1.08036
O          1.37889       -1.09264        1.13054
O          3.47952       -1.94078        0.24113
H          3.91595       -2.26343       -0.55922
S         -2.76386        0.15767       -0.15839
O         -2.50917        1.15384       -1.19499
O         -3.05123       -1.20630       -0.65548
O         -1.74358        0.14194        0.92153
O         -4.09964        0.63084        0.64171
H         -4.80166        0.77150       -0.00811
H          0.66349        2.76869        1.66139
H          1.70269        1.32567        1.55899
H          3.02664        3.41099        1.09998
H          2.97010        2.34454       -0.30714
H          1.45309        4.82852        0.00999
H          2.34614        4.32042       -1.26429
H         -0.40993        1.08583        0.35981
H          0.07019        2.34003       -0.66502
C          1.28453        2.16203        0.99665
C          2.36463        3.00047        0.32615
N          0.40331        1.59329       -0.04940
N          1.73241        4.01099       -0.52104
H          0.95061        0.91294       -0.61428
N         -1.06257       -2.64163        0.55525
H         -0.78210       -1.86091        1.16257
H         -1.30373       -3.45657        1.11096
H         -1.88255       -2.29514        0.00497
H         -0.24016       -2.83525       -0.05847
