36
2sa1dma1eda_89.log	Energy: -1083085.7183206
S         -0.75604       -2.01464       -0.35133
O          0.30338       -2.89214       -0.82217
O         -0.37007       -1.20692        0.85073
O         -1.06258       -0.90030       -1.48990
O         -2.09633       -2.60782       -0.16370
H         -2.86840       -1.14368        0.31679
S          0.34405        2.34704       -0.27228
O          0.22763        3.68673       -0.81952
O          1.26355        2.20943        0.87369
O         -1.18260        2.04340        0.36458
O          0.49326        1.24463       -1.24024
H         -1.51636        2.90275        0.65348
H         -0.41496       -0.15335       -1.44156
N         -3.09280       -0.13980        0.53309
C         -3.60816       -0.03597        1.91270
C         -3.98616        0.39094       -0.51821
H         -2.19141        0.36011        0.47989
H         -4.53748       -0.60121        1.99288
H         -2.85902       -0.45094        2.58662
H         -3.78903        1.01277        2.15356
H         -4.93185       -0.15181       -0.49136
H         -4.15683        1.45434       -0.34548
H         -3.49329        0.24079       -1.47834
H          2.70322       -1.81245       -0.50636
H          2.37545       -0.18912       -1.13553
H          4.84351       -0.67685       -1.15033
H          4.45058        0.68144       -0.09166
H          5.07561       -2.03597        0.80629
H          5.75705       -0.62421        1.27384
H          1.23050       -0.83185        0.99349
H          2.78628       -0.69627        1.71032
C          2.86231       -0.74512       -0.33348
C          4.34058       -0.40106       -0.21466
N          2.18393       -0.39339        0.93953
N          4.88907       -1.05292        0.97636
H          2.00559        0.63110        1.00255
