26
2sa1eda_67.log	Energy: -998252.9188288
S         -1.79885       -1.29404        0.04551
O         -2.06984       -1.05584        1.45467
O         -2.81779       -0.88279       -0.92042
O         -0.44540       -0.73289       -0.33429
O         -1.63469       -2.89822       -0.11610
H         -1.98298       -3.14191       -0.98434
S          2.76471       -0.10658        0.05500
O          4.15046       -0.43379        0.25575
O          2.06008        0.79214        0.94663
O          2.59837        0.60247       -1.39031
O          1.97861       -1.44459       -0.11514
H          3.16654        0.14998       -2.03045
H          0.97454       -1.27334       -0.17737
H         -0.62581        3.61234        0.61718
H          0.51094        2.59297       -0.31097
H         -1.64155        3.19236       -1.59125
H         -1.33322        1.45985       -1.44785
H         -3.50347        2.89974       -0.25707
H         -3.29980        1.27122       -0.47562
H          0.05704        1.75728        1.96783
H         -1.55703        1.53775        1.48301
C         -0.48424        2.64296        0.13280
C         -1.59640        2.35841       -0.88278
N         -0.57185        1.59669        1.18437
N         -2.85160        2.13148       -0.17238
H         -0.32946        0.67427        0.76845
