30
2sa1a1eda_164.log	Energy: -1033753.4498570
S          0.56597        2.19979       -0.28281
O          1.65958        1.46020       -0.92664
O          0.26622        3.53013       -0.77154
O         -0.63379        1.32155       -0.11548
O          1.10395        2.39368        1.26302
H          0.79452        3.25664        1.56952
S         -2.68492       -0.95748       -0.02940
O         -1.69116       -1.66213       -0.83361
O         -3.89766       -1.62219        0.33933
O         -1.97714       -0.44683        1.30289
O         -3.07039        0.39391       -0.76626
H         -1.28340        0.21267        1.04743
H         -2.26375        0.95265       -0.86062
H          1.81380       -3.19254       -0.65260
H          1.86043       -2.27990       -2.16818
H          4.12969       -2.44343       -1.42979
H          3.62185       -0.77572       -1.15397
H          3.95073       -2.82420        0.90638
H          4.61533       -1.33613        0.82424
H          0.10135       -1.45463       -0.74870
H          1.14918       -1.13938        0.52685
C          2.03449       -2.21544       -1.09145
C          3.47647       -1.80687       -0.81615
N          1.08485       -1.23337       -0.52814
N          3.77772       -1.86738        0.61428
H          1.28189       -0.27515       -0.87575
N          1.26118       -0.60346        2.19877
H          0.64840       -0.94593        2.93081
H          1.26588        0.41476        2.22665
H          2.20831       -0.93000        2.37068
