24
2sa1dma_36.log	Energy: -963491.7804383
S          1.22171       -1.47243       -0.11636
O          2.63410       -1.50267       -0.37813
O          0.27059       -1.08775       -1.14332
O          0.73415       -2.92849        0.33288
O          1.00508       -0.59750        1.16816
H          1.43899       -3.36447        0.83515
H          0.06825       -0.26532        1.22895
S         -2.46414        0.51477        0.14470
O         -3.46150        1.54055        0.22793
O         -1.46659        0.34693        1.18782
O         -3.16436       -0.92467        0.05573
O         -1.75496        0.65831       -1.25229
H         -3.97429       -0.85877       -0.47237
H         -0.97317        0.05044       -1.30471
N          2.93682        1.89747       -0.38226
C          1.62726        2.13885       -0.95567
C          3.05703        2.39997        0.97388
H          3.15943        0.90882       -0.40951
H          1.48760        3.21342       -1.11733
H          1.54730        1.64229       -1.92651
H          0.79235        1.79739       -0.31478
H          2.96134        3.49159        0.96674
H          2.29151        2.00001        1.66317
H          4.04409        2.15422        1.37424
