33
2sa1ma1eda_140.log	Energy: -1058411.2488805
S          0.69716       -1.95391       -0.44248
O          0.96666       -0.94713       -1.47247
O          1.69091       -2.06415        0.62543
O         -0.68950       -1.84525        0.11652
O          0.72140       -3.34563       -1.27169
H          0.66936       -4.07505       -0.63905
S         -2.65806        0.90110       -0.40310
O         -3.79624        1.53700       -1.01404
O         -1.36364        1.54344       -0.36745
O         -2.99375        0.64853        1.16887
O         -2.56343       -0.54579       -0.96857
H         -3.91139        0.35004        1.24372
H         -1.76628       -1.07227       -0.58465
N         -0.03781        0.27355        2.29555
H         -0.80907        0.82831        2.65387
C          0.84219       -0.19251        3.37187
H          0.31452       -0.74475        4.15918
H          1.59667       -0.85283        2.93818
H          1.34575        0.66292        3.83203
H         -0.45684       -0.52467        1.81768
H          3.07208        1.65472        1.25944
H          2.93123        0.03904        0.52565
H          4.62163        1.41280       -0.70423
H          3.23915        1.01300       -1.72735
H          3.79538        3.62847       -0.54191
H          3.35117        3.26293       -2.07337
H          0.75731        1.04197        1.00553
H          1.16081        2.29812       -0.12228
C          2.78035        1.10763        0.35756
C          3.55128        1.60185       -0.85910
N          1.33415        1.32691        0.14369
N          3.22292        3.00677       -1.10230
H          1.00590        0.72162       -0.62661
