33
2sa1ma1eda_199.log	Energy: -1058403.9746590
S         -3.06347        0.85495       -0.32050
O         -4.24063        1.58097       -0.71406
O         -1.85231        0.91847       -1.12289
O         -2.57927        1.37791        1.12306
O         -3.47643       -0.62318       -0.05620
H         -3.34083        1.41925        1.71932
H         -2.67525       -1.26339       -0.01276
S         -0.14357       -1.73753        0.30004
O         -1.49594       -2.22358       -0.04788
O          0.89860       -2.77849        0.22887
O          0.30541       -0.74694       -0.91601
O         -0.10888       -0.92417        1.51960
H         -0.41825       -0.09720       -1.06478
H          2.96450       -0.46775        0.51943
N          3.22283       -1.40557        0.04445
H          4.02708       -1.81057        0.51848
C          3.45723       -1.25212       -1.40953
H          3.62569       -2.23100       -1.85849
H          2.55906       -0.81033       -1.83956
H          4.32169       -0.61026       -1.58138
H          2.39119       -2.03533        0.19414
H          3.50224        3.26664        1.04911
H          2.69813        3.73340       -0.43588
H          1.09302        2.61293        0.98569
H          1.39359        1.59710       -0.42370
H          2.66573        1.17267        2.18363
H          1.39077        0.33340        1.58993
H          4.51615        1.44909       -0.13121
H          3.76601        1.88712       -1.52783
C          3.05455        2.86684        0.13009
C          1.85172        1.99505        0.48749
N          4.11565        2.22950       -0.63901
N          2.23960        0.84308        1.32014
