31
2sa1ma1dma_76.log	Energy: -1023673.8771351
S          3.09059        0.38456        0.24197
O          4.42961        0.76864        0.60062
O          1.96855        0.74023        1.09788
O          2.71202        1.07800       -1.16540
O          3.08858       -1.13360       -0.08037
H          3.43701        0.93629       -1.79103
H          2.14454       -1.56427       -0.08051
S         -0.38730       -1.38368       -0.23488
O          0.81407       -2.21620        0.01299
O         -1.65539       -2.09706       -0.24123
O         -0.51887       -0.40284        1.06186
O         -0.17492       -0.46587       -1.38134
H          0.36404       -0.00164        1.21948
H         -1.03451        0.94242       -1.23930
N         -1.71314        1.70806       -0.99213
H         -2.02207        2.15492       -1.85207
C         -1.10375        2.67736       -0.05640
H         -1.82312        3.46201        0.18090
H         -0.83169        2.14139        0.85129
H         -0.20553        3.10995       -0.49695
H         -2.55072        1.16640       -0.53063
N         -3.62129        0.15721        0.16814
C         -4.91758        0.12648       -0.50674
C         -3.73125        0.41482        1.60545
H         -3.15059       -0.74274        0.03790
H         -5.39424        1.10970       -0.43245
H         -4.77483       -0.11254       -1.56369
H         -5.60002       -0.61659       -0.07195
H         -4.11060        1.42924        1.76982
H         -4.41129       -0.29028        2.10254
H         -2.74177        0.32231        2.05713
