36
2sa1dma1eda_37.log	Energy: -1083088.8859884
S          2.95892        0.68568       -0.02575
O          3.26078       -0.17173       -1.17199
O          2.41624        2.01569       -0.38290
O          2.15684        0.01898        1.02585
O          4.36397        0.97312        0.74104
H          4.96161        1.40692        0.11707
S         -2.42837       -1.06033       -0.01110
O         -2.38016       -2.46423        0.38904
O         -2.96370       -0.12323        0.97742
O         -1.13938       -0.58820       -0.60764
O         -3.41049       -0.97133       -1.31519
H         -4.24365       -1.40576       -1.08724
N          0.96571       -2.25230        0.10347
C          1.62867       -2.94625       -1.02165
C          0.58364       -3.12975        1.23156
H          1.57212       -1.47875        0.45921
H          0.93386       -3.66965       -1.45078
H          1.92507       -2.20004       -1.75783
H          2.51996       -3.45332       -0.64994
H         -0.14507       -3.86243        0.88658
H          1.47954       -3.61778        1.61819
H          0.12693       -2.51731        2.00816
H          0.12192       -1.75233       -0.24363
H         -0.63303        3.91534       -0.52553
H         -0.84433        2.67472       -1.78217
H         -3.04140        3.66219       -0.86623
H         -2.93116        1.90392       -0.78327
H         -3.21205        3.65245        1.40089
H         -3.09173        2.00076        1.40787
H          0.74310        2.05302        0.01354
H         -0.58659        2.12709        1.08241
C         -1.03251        2.92031       -0.73546
C         -2.51909        2.83343       -0.37782
N         -0.29122        1.95977        0.11348
N         -2.67189        2.86313        1.07494
H         -0.55906        0.98214       -0.12565
