25
2sa1a1ma_12.log	Energy: -974372.0723297
S          2.20602       -0.15152        0.16634
O          1.18217       -0.81862        0.98159
O          2.39737       -0.78737       -1.15401
O          2.06405        1.31784        0.08145
O          3.56492       -0.41154        1.00311
H          4.29844        0.01365        0.53775
S         -2.20931       -0.54794        0.24214
O         -2.02294       -2.00145        0.30721
O         -1.51609       -0.00244       -1.00012
O         -3.53434       -0.00181        0.43208
O         -1.33577        0.09786        1.45571
H         -0.43111       -0.29348        1.43597
N         -0.47831        2.32670       -0.11434
H         -0.93346        1.53263       -0.63439
H         -0.90082        2.28988        0.81539
C         -0.64211        3.63445       -0.77926
H         -0.17556        4.41351       -0.17675
H         -0.15894        3.59109       -1.75470
H         -1.70392        3.84428       -0.90513
H          0.52269        2.04567       -0.00941
N          0.03841       -2.14486       -1.57530
H         -0.29974       -2.57720       -0.70656
H         -0.55819       -1.28523       -1.64611
H          1.02848       -1.83371       -1.48071
H         -0.09839       -2.76909       -2.36418
