31
2sa1ma1dma_04.log	Energy: -1023696.2493035
S          2.19853        0.43247       -0.19658
O          1.63216        1.78889       -0.05950
O          2.48520       -0.24444        1.07612
O          1.45779       -0.40193       -1.16392
O          3.67810        0.63684       -0.82351
H          3.58828        1.08441       -1.67592
S         -2.07415       -0.88385       -0.33215
O         -3.09911       -1.89798       -0.22195
O         -2.51521        0.44513       -0.82428
O         -1.23499       -0.68851        0.90155
O         -1.03476       -1.46474       -1.42170
H         -0.10859       -1.77349        1.20251
H         -0.20648       -0.93381       -1.40521
N          0.76409       -2.35497        1.38425
H          1.54284       -1.66141        1.36011
C          0.94256       -3.40152        0.34863
H          1.80560       -4.01854        0.59939
H          0.03890       -4.00746        0.29162
H          1.10400       -2.90175       -0.60465
H          0.69542       -2.75212        2.31819
N         -1.02629        2.36704        0.31261
C         -1.23960        3.63826       -0.40579
C         -1.33693        2.41833        1.75627
H         -1.61184        1.61120       -0.13450
H         -0.58722        4.40677        0.01185
H         -1.00306        3.48677       -1.45880
H         -2.28428        3.93623       -0.30546
H         -0.67514        3.13594        2.24409
H         -2.37861        2.71577        1.88698
H         -1.18965        1.41860        2.16354
H         -0.03430        2.07398        0.19070
