33
2sa1ma1eda_137.log	Energy: -1058410.9573522
S          1.19969        0.34362       -0.56603
O          0.43852        1.62022       -0.36721
O          1.51568       -0.30708        0.71735
O          0.52965       -0.57740       -1.51269
O          2.53596        0.77743       -1.27143
H          2.85763        1.67244       -0.85045
S         -2.91422        0.75658        0.28979
O         -4.17472        1.20911        0.82157
O         -2.34870       -0.51223        0.70853
O         -3.05562        0.58789       -1.31217
O         -1.89064        1.90923        0.44613
H         -3.53216        1.35213       -1.66650
H         -0.92490        1.69445        0.11005
N          3.10307        3.02843       -0.08106
H          3.78524        3.66904       -0.47341
C          3.38660        2.74380        1.33364
H          3.37361        3.63976        1.96428
H          2.64066        2.03617        1.70179
H          4.36704        2.26908        1.41247
H          2.18388        3.45386       -0.17643
H         -0.45637       -4.53116        0.31340
H         -0.20213       -3.97267       -1.36563
H          1.94612       -4.65653       -0.18555
H          1.95967       -2.98694       -0.76065
H          2.34453       -3.78469        1.86223
H          2.02981       -2.23815        1.35423
H         -1.62300       -2.42889        0.03251
H         -0.28581       -2.18721        0.97103
C          0.00420       -3.76437       -0.31362
C          1.50586       -3.66734       -0.03050
N         -0.60409       -2.45902        0.03229
N          1.70768       -3.20247        1.33716
H         -0.25883       -1.70245       -0.62007
