34
2sa1ma1tma_15.log	Energy: -1048353.1752292
S         -0.74313        2.03407       -0.17168
O         -1.38021        1.87909        1.12989
O          0.60577        2.63754       -0.16664
O         -0.79322        0.80752       -1.01440
O         -1.69434        3.11307       -0.93044
H         -1.27231        3.35631       -1.76572
S          1.43078       -1.68150       -0.30152
O          0.12801       -2.26254       -0.66985
O          2.60957       -2.49963       -0.50653
O          1.64272       -0.41148       -1.30078
O          1.35136       -1.05701        1.06373
H          0.78588        0.07037       -1.35140
H          2.13426        0.28888        1.18941
N          2.60564        1.24926        1.13012
H          1.92072        1.85397        0.62940
C          3.88868        1.14132        0.39717
H          4.34309        2.12718        0.29640
H          4.55380        0.46974        0.93958
H          3.67130        0.71897       -0.58318
H          2.72940        1.61923        2.06952
N         -2.35152       -1.29308        0.24697
C         -3.48545       -0.34525        0.09260
H         -3.20197        0.61132        0.52952
H         -3.69457       -0.22021       -0.96966
H         -4.35630       -0.75977        0.60469
C         -2.68758       -2.63619       -0.29206
H         -2.94722       -2.53292       -1.34586
H         -1.81123       -3.27356       -0.19775
H         -3.53631       -3.03256        0.26926
C         -1.88240       -1.36514        1.65869
H         -0.99021       -1.98918        1.68759
H         -1.63037       -0.35438        1.97952
H         -2.68570       -1.78232        2.27007
H         -1.55023       -0.92636       -0.29811
