36
2sa1dma1eda_167.log	Energy: -1083073.5849355
S         -0.11143        2.03230        0.02459
O          0.85215        1.64177       -1.03345
O         -1.50373        1.69881       -0.26718
O          0.33828        1.57940        1.36399
O         -0.11222        3.64341        0.05515
H          0.79891        3.95672        0.14377
S          2.48818       -1.01304        0.54735
O          3.61120       -1.87485        0.76380
O          1.16064       -1.60126        0.36207
O          2.41477        0.00843        1.74818
O          2.80766       -0.10735       -0.70557
H          1.62990        0.62052        1.64564
H          2.07607        0.55380       -0.86528
N         -0.81523       -0.70574       -2.36774
C         -1.82882       -0.17290       -3.26812
C         -0.14041       -1.88112       -2.90273
H         -0.12938        0.02302       -2.18707
H         -2.64001       -0.90202       -3.37884
H         -2.24461        0.74391       -2.84183
H         -1.44147        0.05162       -4.27595
H         -0.86341       -2.69786       -3.01199
H          0.32098       -1.70948       -3.88943
H          0.63628       -2.20455       -2.20506
H         -1.56922       -1.71763        2.38723
H         -1.32355        0.03213        2.17593
H         -3.64560       -0.45998        3.01209
H         -3.66058        0.30073        1.41871
H         -4.17021       -2.53016        1.96389
H         -5.03219       -1.48864        1.04473
H         -0.57951       -1.33360        0.26902
H         -2.19474       -1.75544        0.01022
C         -1.89310       -0.83289        1.83250
C         -3.39544       -0.61581        1.95511
N         -1.56435       -1.05297        0.40520
N         -4.09423       -1.74053        1.33147
H         -1.68209       -0.18702       -0.14583
