30
2sa1a1eda_12.log	Energy: -1033766.0989607
S         -2.34352       -1.10944       -0.07286
O         -3.18267       -0.03544        0.45955
O         -1.21540       -0.61576       -0.90547
O         -1.89995       -2.12888        0.89488
O         -3.28719       -1.97413       -1.07444
H         -3.81361       -1.35884       -1.60173
S          2.92228       -0.07167       -0.09030
O          2.91709       -1.30421       -0.88582
O          2.74069        1.16623       -0.87434
O          2.02170       -0.13539        1.08618
O          4.38863        0.04513        0.59751
H          5.04611        0.13174       -0.10624
H         -0.06738        3.81437       -0.34734
H         -0.66561        2.95858       -1.78694
H         -2.52196        3.87729       -0.26203
H         -2.62769        2.14451       -0.59046
H         -2.19848        3.34345        1.94405
H         -2.52212        1.76835        1.54777
H          1.08973        1.69870       -0.54818
H          0.04661        1.70488        0.77171
C         -0.63355        2.94686       -0.69564
C         -2.03701        2.91177       -0.08187
N          0.09354        1.73693       -0.25383
N         -1.94519        2.57673        1.33593
H         -0.37812        0.86534       -0.58002
N          0.76629       -2.51225        0.62821
H          1.05069       -2.50018       -0.35427
H          1.13583       -3.34433        1.07899
H          1.20318       -1.65220        1.03305
H         -0.27982       -2.45608        0.72067
