30
2sa1a1eda_175.log	Energy: -1033751.7152012
S         -1.20675       -0.98757        0.22867
O         -0.52236        0.33407        0.36990
O         -2.30791       -1.12608        1.21703
O         -1.65765       -1.23859       -1.14301
O         -0.16463       -2.10031        0.67047
H          0.68765       -1.96565        0.18885
S          2.80122       -0.17150       -0.46412
O          2.12752       -1.45171       -0.63583
O          3.92727        0.16270       -1.30896
O          1.75272        0.98889       -0.62942
O          3.23191       -0.09548        1.04425
H          0.85455        0.71945       -0.24343
H          3.98949        0.59527        1.14948
H         -5.54535        1.41873       -0.32230
H         -5.19779        0.78142        1.30859
H         -3.89251        2.90719        0.74209
H         -2.86393        1.53357        1.16376
H         -2.99320        2.82628       -1.37675
H         -1.90586        1.71268       -0.80875
H         -5.06928       -0.90528       -0.55880
H         -3.74180       -0.03497       -1.11171
C         -4.77411        0.99356        0.32512
C         -3.55386        1.92069        0.40813
N         -4.31526       -0.28080       -0.28537
N         -2.89130        1.94652       -0.88975
H         -3.63463       -0.77670        0.36786
N          5.22908        1.61675        1.06552
H          5.46149        1.55133        0.07657
H          6.04447        1.34688        1.60560
H          5.01036        2.58436        1.27839
