36
2sa1dma1eda_198.log	Energy: -1083069.3582263
S         -1.05356        2.20075       -0.09809
O         -2.37995        1.52766       -0.20512
O         -0.34915        1.85662        1.14115
O         -0.23136        2.11057       -1.31029
O         -1.42125        3.77806       -0.03594
H         -2.09364        3.90232        0.64751
S         -1.87434       -1.88109       -0.21276
O         -0.56693       -1.36274       -0.55668
O         -2.00290       -3.14197        0.47746
O         -2.70111       -0.82627        0.57269
O         -2.63847       -1.98686       -1.62879
H         -2.54289        0.14714        0.24076
H         -3.47712       -2.45160       -1.49595
N          1.35714       -0.43497        1.76906
C          2.19177        0.43048        2.59646
C          1.43566       -1.84373        2.14034
H          0.39696       -0.09953        1.82072
H          3.25019        0.21022        2.41127
H          1.99197        1.47198        2.33499
H          2.00446        0.29744        3.67207
H          2.45542       -2.20764        1.96940
H          1.18813       -2.01753        3.19763
H          0.75405       -2.42474        1.51644
H          3.09538        1.25105       -2.01597
H          3.08762        1.58078       -0.27643
H          5.08563        0.22109       -0.87501
H          3.99495       -0.69305        0.17365
H          4.29361       -1.08892       -2.71096
H          4.34890       -2.19973       -1.50964
H          0.92688        0.80432       -1.15698
H          1.65026       -0.68447       -1.48180
C          3.01783        0.79045       -1.02700
C          4.10113       -0.26395       -0.82883
N          1.69485        0.15400       -0.89897
N          3.91244       -1.33498       -1.80385
H          1.53531       -0.14219        0.12651
