36
2sa1dma1eda_77.log	Energy: -1083087.7992361
S          0.43854        2.10513       -0.22463
O          1.88705        1.89695       -0.11555
O         -0.19015        1.28610       -1.29252
O         -0.31088        2.07693        1.03914
O          0.23964        3.65091       -0.70384
H          0.78619        3.78989       -1.48871
S          0.21824       -2.01249       -0.33272
O          1.03861       -3.21381       -0.34823
O         -1.24834       -2.19226       -0.36381
O          0.56760       -1.06532        0.78337
O          0.63848       -1.22781       -1.67087
H          2.10050       -0.84954        0.81271
H          0.32560       -0.28728       -1.60215
N          3.17423       -0.86607        0.83326
C          3.65997        0.14187        1.80359
C          3.68624       -0.68163       -0.54826
H          3.40228       -1.80824        1.15109
H          3.31502        1.11773        1.46070
H          3.22739       -0.07678        2.78023
H          4.74989        0.10682        1.85649
H          3.34842        0.29461       -0.89507
H          4.77652       -0.74097       -0.54005
H          3.25857       -1.46171       -1.17814
H         -3.45184        1.59914        0.14354
H         -2.57578        0.66131       -1.07848
H         -5.01398        0.01126       -1.02745
H         -3.96078       -1.33581       -0.57888
H         -5.61068        0.23597        1.25444
H         -5.43189       -1.38759        1.15647
H         -1.45287        0.75403        1.08311
H         -2.77270       -0.11010        1.73848
C         -3.14127        0.59217       -0.14851
C         -4.32768       -0.35713       -0.25435
N         -2.22438        0.07923        0.89587
N         -4.94418       -0.50489        1.06625
H         -1.80784       -0.81813        0.56530
