36
2sa1dma1eda_29.log	Energy: -1083089.9676829
S          2.02743       -1.43620       -0.40915
O          1.59467       -2.58943       -1.19420
O          2.41755       -0.25513       -1.20862
O          1.12520       -1.07790        0.70928
O          3.37941       -1.89080        0.38510
H          3.97248       -2.30277       -0.25747
S         -2.48687        1.01227       -0.32326
O         -1.75169        1.88404       -1.26609
O         -2.82412       -0.30539       -0.91154
O         -1.89342        0.92518        1.01006
O         -3.90965        1.75802       -0.06850
H         -4.33917        1.88563       -0.92517
N         -1.39852       -2.15905        0.54273
C         -2.01253       -2.18018        1.88779
C         -1.28165       -3.48507       -0.10147
H         -1.95483       -1.51630       -0.06444
H         -1.38680       -2.77433        2.55555
H         -2.08389       -1.15095        2.23935
H         -3.00853       -2.62051        1.81747
H         -0.68344       -4.13822        0.53522
H         -2.27943       -3.90405       -0.24155
H         -0.77233       -3.36299       -1.05656
H         -0.44781       -1.73187        0.61387
H          0.38730        2.94288        1.10866
H          0.74386        1.20954        1.23941
H          2.62507        2.58250        2.19754
H          3.14222        1.62897        0.80226
H          2.64515        4.51376        0.81330
H          3.92909        3.69226        0.21899
H         -0.06338        1.97693       -0.97984
H          1.41149        2.81493       -1.11072
C          1.06554        2.14791        0.78910
C          2.51752        2.47267        1.11114
N          0.93687        2.01257       -0.68535
N          2.92557        3.65640        0.34923
H          1.42993        1.14719       -0.99664
