36
2sa1dma1eda_111.log	Energy: -1083082.0522659
S         -1.04288        1.59944       -0.75314
O         -0.72393        0.88802        0.50350
O         -0.27467        2.83642       -0.95133
O         -0.53544        0.66451       -1.94798
O         -2.51622        1.75600       -0.90928
H         -3.18484        0.73195        0.09501
S          0.55334       -2.17505       -0.23450
O          0.02272       -2.42108        1.10636
O          1.71716       -1.27604       -0.31951
O          1.19866       -3.58920       -0.73295
O         -0.50238       -1.85322       -1.22921
H          0.56324       -4.28685       -0.52630
H         -0.59034       -0.30438       -1.70077
N         -3.62811        0.07555        0.81495
C         -3.38617        0.64405        2.16298
C         -3.07760       -1.29635        0.64563
H         -4.62725        0.07182        0.61437
H         -2.30667        0.73457        2.28298
H         -3.84671        1.63069        2.21837
H         -3.80892       -0.01887        2.91994
H         -2.02064       -1.28710        0.91335
H         -3.62940       -1.98387        1.28934
H         -3.17060       -1.58710       -0.40027
H          2.49549        2.63316        1.23701
H          1.44946        1.22019        1.52905
H          3.76582        0.87430        2.49413
H          3.37019       -0.30054        1.22913
H          5.20405        1.96231        0.96446
H          5.38396        0.41528        0.45922
H          1.41880        2.07473       -0.77696
H          3.04046        1.54906       -0.89563
C          2.35541        1.56821        1.03206
C          3.58469        0.75470        1.41860
N          2.13840        1.41429       -0.42849
N          4.71290        1.16399        0.57766
H          1.81913        0.43671       -0.60539
