26
2sa1eda_18.log	Energy: -998260.0589829
S          2.12903       -0.74560       -0.09593
O          1.84461       -1.95145       -0.86435
O          2.31881        0.50360       -0.85588
O          1.13690       -0.55602        1.01266
O          3.54721       -1.04080        0.61024
H          3.95892       -0.19623        0.84041
S         -0.69043        2.06195        0.02897
O         -1.28230        0.78588       -0.37499
O         -1.52607        3.21806        0.16936
O          0.06252        1.82346        1.40115
O          0.46596        2.42478       -0.97921
H          0.52755        0.93966        1.36735
H          1.14869        1.69917       -1.01991
H         -2.28070       -3.57677       -0.03078
H         -1.59822       -2.92711        1.48376
H         -4.00337       -2.15514        1.01252
H         -2.85504       -0.82874        1.20080
H         -4.34250       -1.43675       -1.12586
H         -3.28573       -0.18620       -0.87873
H         -0.12760       -2.64559       -0.57586
H         -1.33472       -1.60422       -1.11454
C         -1.98150       -2.66764        0.49538
C         -3.13982       -1.66450        0.55408
N         -0.89503       -2.03201       -0.28614
N         -3.42010       -1.18793       -0.79659
H         -0.43216       -1.27130        0.24272
