31
2sa1ma1dma_46.log	Energy: -1023685.3469665
S         -2.78357       -0.75573       -0.15198
O         -3.87947       -1.60471       -0.54964
O         -1.63426       -0.67343       -1.11683
O         -3.16147        0.62892        0.25345
O         -2.15969       -1.45441        1.16637
H         -1.92389        1.60588        0.14481
H         -1.30885       -1.02449        1.38721
S          1.36744       -0.60336        0.29506
O          2.47789       -1.35195        0.92126
O          0.35148       -0.09403        1.24608
O          1.88740        0.51308       -0.55807
O          0.66402       -1.64311       -0.65031
H          3.54219        0.14002       -0.93803
H         -0.28164       -1.32867       -0.88562
N          4.38276       -0.42362       -0.65491
H          3.90074       -1.08786        0.00260
C          5.38640        0.40160        0.05267
H          6.19083       -0.23568        0.41846
H          5.78334        1.15760       -0.62420
H          4.88818        0.88173        0.89419
H          4.76512       -0.92286       -1.45454
N         -0.99003        2.11723        0.08490
C         -0.99805        3.30067        0.96289
C         -0.68989        2.39688       -1.33511
H         -0.32195        1.41810        0.45299
H         -1.76722        3.99528        0.62207
H         -1.22118        2.98100        1.98096
H         -0.02094        3.78618        0.93305
H         -1.42202        3.11245       -1.71338
H          0.32072        2.79733       -1.42229
H         -0.77250        1.45635       -1.87872
