33
2sa1ma1eda_209.log	Energy: -1058392.8459417
S          1.73953       -0.73120        0.04324
O          2.15093        0.63230        0.47782
O          0.77231       -0.72423       -1.06817
O          2.92843       -1.57235       -0.21983
O          1.02727       -1.41028        1.29446
H          4.37195       -0.70561        0.14011
H          0.04662       -1.40817        1.18602
S         -2.55123       -1.06044       -0.03385
O         -3.57628       -0.11632        0.34993
O         -1.65329       -1.63680        0.94810
O         -3.30784       -2.32836       -0.67431
O         -1.76345       -0.51155       -1.25894
H         -4.15165       -2.02833       -1.04032
H         -0.75742       -0.53977       -1.11835
N          4.75961        0.25442        0.31653
H          3.85861        0.72704        0.58154
C          5.32303        0.83672       -0.92232
H          5.59417        1.87728       -0.74718
H          6.19714        0.26480       -1.23201
H          4.55460        0.78117       -1.69272
H          5.41536        0.24978        1.09369
H         -0.43390        3.51521        1.00647
H          0.43930        2.49338       -0.15908
H         -1.39733        3.82368       -1.17502
H         -1.58902        2.07722       -1.41840
H         -3.58659        3.44992       -0.61822
H         -3.28729        2.07253        0.19645
H          0.02849        1.18657        1.69672
H         -1.56471        1.54575        1.74212
C         -0.51548        2.62737        0.35922
C         -1.61421        2.87795       -0.66520
N         -0.77641        1.40142        1.11683
N         -2.91689        2.99735       -0.00691
