33
2sa1ma1eda_72.log	Energy: -1058426.9201765
S         -0.26518        1.93466       -0.05606
O         -1.65445        2.26201        0.26061
O          0.39210        1.23422        1.24641
O         -0.13148        0.91755       -1.14206
O          0.64072        3.07448       -0.29257
H          2.06225        2.14104       -0.71123
S          1.11770       -2.02156       -0.00645
O          0.42553       -2.47078       -1.20791
O          2.32555       -1.19503       -0.22159
O          0.21820       -1.42430        1.01887
O          1.65833       -3.40381        0.65471
H          0.25469        0.25101        1.22328
H          2.11596       -3.18675        1.47787
N          2.83884        1.43880       -0.67844
H          2.42267        0.47964       -0.63720
C          3.65396        1.66138        0.53877
H          4.40613        0.87720        0.61594
H          4.12306        2.64362        0.48817
H          2.97551        1.61691        1.38988
H          3.38888        1.50349       -1.53189
H         -3.06697        0.68830       -1.28673
H         -3.78748       -0.82247       -1.88775
H         -4.95963        0.24327        0.13085
H         -4.49234       -1.44583        0.37989
H         -2.89418        0.83754        1.33651
H         -3.65410       -0.31669        2.25737
H         -1.17775       -0.36803       -1.10590
H         -1.82056       -1.13821        0.19316
C         -3.27531       -0.35605       -1.04522
C         -4.09988       -0.43165        0.24310
N         -1.95905       -1.01204       -0.82678
N         -3.22259       -0.12699        1.36263
H         -1.80560       -1.90888       -1.28578
