33
2sa1ma1eda_69.log	Energy: -1058426.3304494
S         -1.21727        1.64113       -0.46579
O         -1.93690        0.58900       -1.20960
O         -1.25136        1.50558        0.98943
O          0.15043        1.87776       -1.00107
O         -2.03438        3.01403       -0.74171
H         -2.08912        3.15135       -1.69774
S          2.17020       -1.21684       -0.40065
O          3.50193       -1.58012        0.02932
O          1.48210       -2.09031       -1.35882
O          1.23059       -0.89669        0.75164
O          2.37555        0.22858       -1.11592
H          1.40762        0.62207        1.32140
H          1.50838        0.61850       -1.35346
N          1.56678        1.66164        1.43560
H          1.24490        2.04669        0.53206
C          2.99175        1.94680        1.71216
H          3.14845        3.02310        1.78120
H          3.27710        1.46401        2.64619
H          3.57815        1.52943        0.89378
H          0.92091        2.00633        2.14418
H         -2.62579       -3.34521       -0.19022
H         -1.43098       -3.39307        1.13586
H         -3.50833       -2.50555        1.99942
H         -2.33977       -1.17954        1.94927
H         -4.70455       -0.84109        0.99132
H         -3.48444       -0.33533        0.02727
H         -0.50053       -2.45642       -0.95115
H         -1.54713       -1.15884       -0.82481
C         -2.03232       -2.74088        0.49814
C         -2.95151       -1.84947        1.32399
N         -1.08493       -1.92100       -0.29881
N         -3.89953       -1.15497        0.46360
H         -0.36913       -1.45611        0.30370
