34
2sa1ma1tma_39.log	Energy: -1048340.3980069
S         -1.93854       -1.57306       -0.32682
O         -2.13801       -0.77320        0.90043
O         -3.10288       -2.17414       -0.94008
O         -0.98896       -0.89806       -1.24856
O         -1.04516       -2.84175        0.26969
H         -0.97667        0.72404       -1.40246
H         -1.25940       -3.62460       -0.25475
S         -0.83242        2.27750        0.08009
O         -0.77491        3.70716        0.01409
O         -0.94836        1.72687       -1.39461
O          0.25187        1.54739        0.74711
O         -2.19253        1.86836        0.76112
H          0.42657       -0.22755        1.03053
H         -2.24647        0.87570        0.87031
N          1.02684       -1.04894        1.21091
H          0.51559       -1.88408        0.90680
C          1.37967       -1.10558        2.64296
H          2.07212       -1.92954        2.81817
H          1.84938       -0.16287        2.92370
H          0.47447       -1.25012        3.23248
H          1.88393       -0.88824        0.57967
N          3.09296       -0.34199       -0.45828
C          4.13421       -1.33267       -0.71677
H          4.63140       -1.60163        0.21962
H          3.68720       -2.23327       -1.14678
H          4.89461       -0.95444       -1.41871
C          2.37134        0.00049       -1.68815
H          1.88617       -0.89069       -2.09396
H          1.59897        0.73826       -1.46276
H          3.04928        0.41782       -2.44871
C          3.64341        0.86126        0.16899
H          2.82917        1.55123        0.40580
H          4.15867        0.59061        1.09563
H          4.36137        1.37283       -0.49096
