39
2sa1eda1tma_02.log	Energy: -1107755.7517707
S          0.88376       -1.63875        0.15985
O          1.00095       -0.47514        1.12215
O          0.82992       -0.92303       -1.29119
O          2.10523       -2.42945        0.11173
O         -0.38311       -2.34826        0.34758
H         -2.37471       -0.30604       -0.40170
S         -1.09922        1.94189       -0.10287
O          0.14226        2.66762       -0.40090
O         -2.32750        2.71332       -0.04714
O         -1.23081        0.72184       -0.99530
O         -0.95821        1.31063        1.37520
H          0.05811       -0.29551       -1.29595
H         -0.24985        0.61165        1.36449
H          4.47515        2.13409       -0.29556
H          3.79901        1.93691        1.34258
H          5.57583        0.18123        0.74655
H          4.01288       -0.49955        1.20987
H          5.27641       -0.78300       -1.30073
H          3.84845       -1.44160       -0.77833
H          1.97568        2.13916       -0.36704
H          2.66147        0.79014       -1.11327
C          3.90029        1.47439        0.35871
C          4.53127        0.07771        0.43638
N          2.55339        1.29957       -0.22587
N          4.39103       -0.58479       -0.85627
H          1.97754        0.66507        0.38062
N         -3.23395       -0.83083       -0.08838
C         -3.10236       -1.08856        1.37053
H         -2.20184       -1.68299        1.52693
H         -3.00302       -0.13018        1.87964
H         -3.99205       -1.62169        1.71388
C         -4.37510        0.07089       -0.38804
H         -4.20472        1.02546        0.11176
H         -4.41404        0.24089       -1.46414
H         -5.30006       -0.39661       -0.04342
C         -3.28584       -2.09244       -0.86855
H         -3.32798       -1.84489       -1.92990
H         -2.37938       -2.65952       -0.65526
H         -4.17809       -2.65311       -0.58031
