36
2sa1dma1eda_63.log	Energy: -1083092.8628234
S          0.17614        1.87547       -0.91147
O          0.85051        0.77014       -1.63799
O          0.24355        1.58941        0.57116
O          0.56880        3.21790       -1.26451
O         -1.38722        1.75645       -1.28711
H         -1.64556        0.80082       -1.30399
S         -1.17393       -1.97075       -0.60654
O         -2.09889       -0.79550       -0.77934
O         -0.49777       -1.84453        0.72163
O         -1.76620       -3.25917       -0.86939
O         -0.02846       -1.76909       -1.71008
H          0.24863       -0.81746       -1.74765
N         -2.16744        0.67385        1.52980
C         -2.15109       -0.06683        2.80830
C         -3.16993        1.75888        1.45242
H         -1.22210        1.06715        1.31838
H         -3.14129       -0.48744        2.98990
H         -1.42481       -0.87426        2.71865
H         -1.88391        0.61576        3.61666
H         -4.16815        1.33235        1.56035
H         -2.98254        2.47852        2.25077
H         -3.06767        2.24700        0.48333
H         -2.30713        0.00565        0.73776
H          3.17772       -1.98080       -0.03983
H          2.58887       -0.65318       -1.07017
H          4.99486       -0.30704       -0.41719
H          3.94462        0.97989        0.17617
H          5.08945       -1.17402        1.79248
H          5.05710        0.43240        2.09319
H          1.07524       -1.28282        0.83821
H          2.32368       -0.66520        1.83774
C          2.96320       -0.90970       -0.08057
C          4.18734       -0.08145        0.29002
N          1.89339       -0.63077        0.90762
N          4.53008       -0.33353        1.69163
H          1.46370        0.30979        0.77416
