39
2sa1eda1tma_25.log	Energy: -1107750.7493468
S         -0.35662        1.89678       -0.72586
O         -1.65894        1.39592       -1.21121
O         -0.20910        1.95739        0.72712
O          0.79023        1.26698       -1.42210
O         -0.31162        3.46586       -1.16482
H         -0.45458        3.51316       -2.11988
S          0.75448       -2.19377       -0.49495
O          1.79426       -3.13367       -0.10722
O         -0.51572       -2.80711       -0.95103
O          0.48283       -1.11513        0.50043
O          1.37417       -1.39732       -1.76507
H          1.65318        0.36230        0.53096
H          1.01796       -0.48078       -1.76981
H         -2.68998       -1.75861        1.62514
H         -1.57826       -0.39210        1.39873
H         -3.72707        0.36962        2.46835
H         -3.47727        1.10744        0.88218
H         -5.35451       -1.05902        1.48507
H         -5.61895        0.33170        0.66637
H         -1.80426       -1.82658       -0.58773
H         -3.44525       -1.31429       -0.65570
C         -2.54686       -0.80285        1.11333
C         -3.69037        0.16253        1.39098
N         -2.50060       -1.07503       -0.34421
N         -4.93354       -0.39122        0.84795
H         -2.20119       -0.20326       -0.82615
N          2.53539        0.60880        1.02226
C          2.90888        2.01048        0.71222
H          3.02619        2.10708       -0.36602
H          2.10451        2.66501        1.04445
H          3.84371        2.24252        1.22744
C          2.23001        0.42194        2.46225
H          1.42240        1.10459        2.72634
H          1.90283       -0.60709        2.60559
H          3.12759        0.63479        3.04705
C          3.56473       -0.35289        0.54530
H          3.22246       -1.37018        0.73905
H          3.68605       -0.22276       -0.52987
H          4.50271       -0.14795        1.06590
