30
2sa1a1eda_68.log	Energy: -1033762.8862502
S          2.58826       -1.06101       -0.10737
O          3.62041       -1.73974       -0.86799
O          2.98477        0.12259        0.65377
O          1.30381       -0.82634       -0.84755
O          2.03862       -2.17070        1.00050
H          2.80876       -2.55706        1.43803
S         -2.90122       -0.18441       -0.05719
O         -1.90900       -0.37151        1.03035
O         -2.75547        1.08231       -0.77343
O         -2.99374       -1.37755       -0.92901
O         -4.30396       -0.11550        0.75764
H         -5.00886        0.08346        0.12619
H          0.21375        2.99474        1.61977
H          1.49603        1.75031        1.70003
H          2.37261        3.86671        0.70518
H          2.44583        2.50646       -0.41389
H          0.53181        4.72294       -0.53913
H          1.42006        4.05652       -1.74266
H         -0.67113        0.93445        0.76333
H         -0.44709        1.99204       -0.50265
C          0.88482        2.35980        1.03470
C          1.75988        3.18586        0.10020
N          0.04273        1.45259        0.22039
N          0.91572        3.85236       -0.88920
H          0.61008        0.72069       -0.25376
N         -0.65688       -2.59135       -0.24052
H         -1.56523       -2.32125       -0.68398
H          0.11881       -1.98288       -0.60436
H         -0.75286       -2.36579        0.75125
H         -0.42793       -3.57236       -0.36861
