31
2sa1ma1dma_01.log	Energy: -1023698.1874857
S         -1.96409        0.81702       -0.42174
O         -1.30446        2.04474       -0.92204
O         -3.41006        0.77846       -0.46193
O         -1.50347       -0.38643       -1.40343
O         -1.36698        0.45202        0.91089
H         -1.42679       -1.10261        1.24317
S          1.80656       -1.18943       -0.15829
O          1.09344       -2.45495        0.11201
O          2.06013       -0.35800        1.02502
O          3.29580       -1.62113       -0.62773
O          1.22204       -0.43071       -1.28608
H          3.21471       -2.25091       -1.35719
H         -0.51864       -0.39093       -1.47283
N         -1.36484       -2.16478        1.30277
H         -0.44091       -2.39881        0.87804
C         -2.48626       -2.78716        0.55786
H         -2.39046       -3.87246        0.58942
H         -3.42968       -2.47253        1.00304
H         -2.43776       -2.42737       -0.46933
H         -1.35114       -2.44297        2.28107
N          1.04471        2.19364        0.43661
C          0.70999        2.97064        1.64676
C          2.15271        2.73771       -0.37355
H          1.29099        1.22422        0.71309
H          0.44412        3.98844        1.35758
H         -0.14226        2.48807        2.12511
H          1.56885        2.98353        2.31988
H          1.88539        3.73511       -0.72570
H          3.05814        2.78192        0.23375
H          2.30819        2.06969       -1.22067
H          0.17861        2.12515       -0.15371
