25
2sa1a1ma_19.log	Energy: -974366.5324126
S          1.60011       -1.13735       -0.13451
O          2.33214       -0.11209       -0.87726
O          0.98650       -0.61023        1.11877
O          0.63705       -1.93976       -0.91055
O          2.75868       -2.15878        0.32671
H          2.34517       -2.98398        0.61662
S         -2.26181       -0.20851       -0.06463
O         -3.67415       -0.05319        0.11518
O         -1.52344        0.76428       -0.87223
O         -1.59716       -0.25617        1.37209
O         -1.99093       -1.64198       -0.65637
H         -0.61283       -0.42981        1.29891
H         -1.01733       -1.77093       -0.84005
N          0.82472        2.22998       -0.58769
H          0.89880        2.37905        0.45612
H          1.51816        1.49867       -0.82825
C          0.99849        3.47125       -1.36559
H          0.88423        3.25523       -2.42756
H          0.24399        4.19560       -1.05915
H          1.99242        3.87843       -1.18040
H         -0.09969        1.79324       -0.74631
N          0.92553        2.17605        2.22507
H         -0.01155        2.16709        2.61830
H          1.51135        2.73165        2.83931
H          1.26239        1.21322        2.23997
