36
2sa1dma1eda_125.log	Energy: -1083079.9739922
S         -2.77150       -1.43714       -0.14575
O         -3.07008       -0.06711       -0.66177
O         -3.87282       -2.36553       -0.22224
O         -1.48504       -1.93560       -0.72240
O         -2.47598       -1.24077        1.43457
H         -0.33149       -1.05961       -0.84541
H         -1.59942       -0.81490        1.54211
S          1.03118       -0.06472        0.54779
O          0.49518       -0.42631       -0.89876
O          1.98539        1.03043        0.30578
O         -0.13862        0.30561        1.37244
O          1.70607       -1.28692        1.08052
H         -1.24210        1.86386        0.88998
H          2.99153       -1.53822        0.36101
N          3.92611       -1.59135       -0.19579
C          4.84357       -0.58006        0.38305
C          3.61395       -1.36351       -1.62909
H          4.30713       -2.52773       -0.06903
H          4.33979        0.38589        0.32536
H          5.02423       -0.82822        1.42891
H          5.78280       -0.56784       -0.17301
H          3.15940       -0.37676       -1.72025
H          4.53025       -1.42285       -2.21921
H          2.89405       -2.11337       -1.95560
H         -0.46998        1.76572       -1.31786
H         -1.81638        2.78044       -1.85277
H          0.33915        4.06320       -1.53417
H         -0.99903        4.69578       -0.57067
H          1.09031        2.92564        0.51877
H          0.79161        4.49964        0.92291
H         -2.54065        2.82527        0.48873
H         -2.43365        1.22406       -0.12703
C         -1.12137        2.59479       -1.03161
C         -0.31776        3.84252       -0.67872
N         -1.90021        2.11596        0.13819
N          0.36903        3.64353        0.58726
