21
2sa1ma_25.log	Energy: -938853.4846225
S         -2.54215        0.34204       -0.11897
O         -3.94691        0.53413       -0.35651
O         -1.56499        0.64154       -1.15267
O         -2.08797        1.28037        1.10948
O         -2.33767       -1.10151        0.42938
H         -2.75629        1.22910        1.80813
H         -1.36270       -1.40562        0.37901
S          1.23659       -0.99808        0.08378
O          2.53540       -1.62444       -0.07621
O          0.07404       -1.89773        0.19832
O          1.20629        0.07761        1.12220
O          1.04120       -0.17689       -1.32157
H          2.13639        1.19692        0.58342
H          0.10233        0.11201       -1.37774
N          2.79746        1.75086       -0.06949
H          2.42793        1.52178       -0.99843
C          4.19213        1.26031        0.09036
H          4.84276        1.74418       -0.63762
H          4.52419        1.48338        1.10349
H          4.17540        0.18001       -0.06003
H          2.70875        2.75232        0.08770
