39
2sa1eda1tma_109.log	Energy: -1107729.0341620
S         -0.44173        2.35930        0.03840
O          0.77751        2.31967        0.84908
O         -0.29752        1.87487       -1.33777
O         -1.60522        1.75004        0.75013
O         -0.83208        3.92084       -0.16193
H         -0.93267        4.32113        0.71247
S         -2.45711       -1.39061       -0.32807
O         -1.08052       -1.44886       -0.77565
O         -2.80803       -2.00311        0.93659
O         -3.02765        0.05258       -0.43065
O         -3.31402       -2.09523       -1.48856
H         -2.43922        0.76150        0.04690
H         -4.20533       -2.26992       -1.15420
H          2.48787        0.97154       -2.25935
H          2.71705        1.23865       -0.52764
H          4.72763        0.12582       -1.53927
H          3.95567       -0.92928       -0.35340
H          3.69698       -1.20363       -3.25817
H          4.19421       -2.31967       -2.17071
H          0.56260        0.26124       -1.22225
H          1.38689       -1.15741       -1.57653
C          2.62365        0.46993       -1.29733
C          3.82440       -0.46565       -1.33699
N          1.39935       -0.30638       -1.00971
N          3.57307       -1.53129       -2.30572
H          1.36256       -0.58182        0.02821
N          1.51701       -0.98630        1.68929
C          1.93626       -2.38325        1.73418
H          1.18311       -3.00527        1.24310
H          2.88778       -2.50410        1.20497
H          2.06975       -2.74227        2.76795
C          2.52051       -0.10551        2.28453
H          3.47893       -0.22804        1.76887
H          2.19009        0.93008        2.17876
H          2.67708       -0.33028        3.35260
C          0.22502       -0.80748        2.35880
H         -0.11670        0.22069        2.22514
H         -0.51411       -1.48206        1.92430
H          0.30644       -1.02287        3.43692
