36
2sa1dma1eda_159.log	Energy: -1083073.4924532
S          2.95425       -0.39096       -0.27857
O          2.67806       -1.54238       -1.13561
O          2.90326        0.93314       -0.93175
O          2.15123       -0.41024        0.97636
O          4.49108       -0.60519        0.15438
H          4.82630        0.22160        0.52835
S         -0.21240        1.91769        0.22625
O         -1.23497        2.87602        0.52760
O         -0.58405        0.72264       -0.54593
O          0.95251        2.65000       -0.52766
O          0.43090        1.43650        1.58085
H          1.69481        2.01211       -0.75280
H          1.13546        0.73763        1.40514
N         -3.62604       -0.00470       -0.49259
C         -4.08382        0.67730        0.71353
C         -4.56368        0.13803       -1.59956
H         -2.72800        0.39001       -0.76102
H         -4.98104        0.17996        1.09786
H         -3.30949        0.62779        1.48352
H         -4.32069        1.73869        0.54441
H         -5.50223       -0.37031       -1.35319
H         -4.79916        1.18880       -1.83312
H         -4.15038       -0.33237       -2.49591
H          0.01080       -3.65953        0.72070
H          0.47379       -2.11287        1.47826
H         -1.91533       -2.90358        2.07746
H         -1.83439       -1.29737        1.35654
H         -3.07666       -3.58944        0.21498
H         -3.16032       -1.97454       -0.21633
H          0.95192       -2.13644       -0.91353
H         -0.73217       -2.41663       -1.16751
C         -0.22145       -2.59412        0.78975
C         -1.68994       -2.36415        1.15147
N         -0.01091       -2.00896       -0.55893
N         -2.53833       -2.75374        0.02845
H         -0.17663       -0.98558       -0.53245
