21
2sa1ma_10.log	Energy: -938859.5761832
S         -2.39770       -0.40118       -0.11480
O         -3.67555       -1.00271       -0.37672
O         -1.88540        0.64514       -0.98735
O         -2.43095        0.32336        1.33112
O         -1.35197       -1.53241        0.07483
H         -2.86604       -0.26157        1.96871
H         -0.40565       -1.15323        0.22859
S          2.18016       -0.56034       -0.08775
O          0.82862       -0.38316        0.52291
O          2.39605       -1.80261       -0.80265
O          2.55263        0.67713       -0.81414
O          3.12617       -0.60090        1.23297
H          1.27231        1.69392       -0.84644
H          3.91309       -1.11736        1.01229
N          0.37776        2.24564       -0.72954
H          0.34128        2.98499       -1.42789
C          0.28604        2.77672        0.65308
H         -0.66877        3.28497        0.78384
H          0.35313        1.92673        1.33084
H          1.11357        3.46286        0.83038
H         -0.40970        1.59268       -0.89901
