26
2sa1eda_86.log	Energy: -998253.5778643
S          2.34843       -0.44393        0.07119
O          3.74529       -0.67807        0.31714
O          1.46577       -0.02061        1.15241
O          2.21051        0.78088       -0.99004
O          1.74873       -1.64716       -0.68332
H          2.88546        0.67256       -1.67571
H          0.70036       -1.53020       -0.81916
S         -1.73523       -1.41158        0.00032
O         -1.86793       -2.78915        0.40772
O         -0.63641       -1.16237       -0.99952
O         -2.96490       -0.70750       -0.41618
O         -1.28724       -0.51082        1.28858
H         -2.69737        0.90304       -0.28283
H         -0.31765       -0.54659        1.40657
H         -0.59303        1.15512       -1.09044
H         -1.42841        2.47216       -1.93409
H          0.76075        3.17664       -0.80983
H         -0.63821        4.11616       -0.26510
H          0.61301        1.91671        1.22289
H          0.30777        3.45201        1.72613
H         -1.90901        1.85418        0.87425
H         -2.98831        2.58422       -0.17214
C         -1.09219        2.11773       -0.95872
C         -0.18086        3.12011       -0.25044
N         -2.27956        1.85810       -0.09337
N         -0.03168        2.70096        1.13851
