31
2sa1a1tma_26.log	Energy: -1023681.7759419
S         -1.47725       -1.77389       -0.08956
O         -1.08381       -0.65798       -0.96879
O         -2.28392       -2.82198       -0.68353
O         -0.35588       -2.26081        0.74914
O         -2.46991       -0.96737        0.97295
H         -2.79996       -1.60784        1.61675
S          1.99233        0.43948        0.62352
O          0.79468        1.09587        1.12304
O          3.29339        0.85763        1.09760
O          1.91402       -1.10733        0.86587
O          1.92927        0.58890       -0.94688
H          0.97269       -1.49492        0.79233
H          2.73479        0.08842       -1.34068
N          4.06068       -0.80952       -1.63726
H          4.74837       -0.49678       -0.95675
H          4.48242       -0.78087       -2.55922
H          3.83191       -1.77495       -1.41870
N         -1.69331        1.86030       -0.28930
C         -2.97293        1.65427       -1.01419
H         -2.75421        1.23146       -1.99380
H         -3.57613        0.94462       -0.44863
H         -3.48613        2.61367       -1.10976
C         -1.92507        2.32356        1.10165
H         -2.51390        1.56471        1.61589
H         -0.96168        2.43307        1.59488
H         -2.46125        3.27497        1.06933
C         -0.77388        2.75470       -1.03559
H          0.15704        2.83164       -0.47685
H         -0.57410        2.30623       -2.00859
H         -1.24577        3.73297       -1.15221
H         -1.23837        0.91817       -0.26775
