36
2sa1dma1eda_208.log	Energy: -1083069.5663461
S         -3.12396        0.14152       -0.27809
O         -3.63238        1.41603        0.17501
O         -2.81231       -0.90714        0.67450
O         -4.22579       -0.50022       -1.25836
O         -1.92209        0.37903       -1.23199
H         -4.73589        0.21653       -1.66114
H         -1.07153       -0.17322       -0.96978
S          0.49583       -1.49953        0.61873
O          0.44338       -0.53480        1.72024
O          0.15505       -0.85567       -0.69972
O          1.75423       -2.24828        0.49501
O         -0.61506       -2.61425        0.87291
H          2.79721       -1.17633       -0.42026
H         -1.48484       -2.16321        0.92040
N          3.31075       -0.33686       -0.76313
C          2.89642       -0.02299       -2.14520
C          4.75997       -0.54058       -0.58780
H          2.98992        0.45664       -0.09684
H          3.21287       -0.82418       -2.81568
H          1.80963        0.05675       -2.15933
H          3.35545        0.91887       -2.45229
H          5.09766       -1.36761       -1.21472
H          5.29039        0.37216       -0.86668
H          4.95641       -0.77452        0.45908
H          0.52843        1.72827       -0.78369
H          0.18177        3.45201       -0.61591
H          2.55074        3.16609       -0.37149
H          1.85455        3.62691        1.19893
H          3.27761        1.85533        1.64813
H          1.83205        1.10509        1.59795
H         -1.38304        2.52198        0.75322
H         -0.38470        1.39217        1.38199
C          0.50066        2.56261       -0.06339
C          1.91115        2.82608        0.45267
N         -0.42585        2.34868        1.03890
N          2.51594        1.60392        1.02416
