39
2sa1eda1tma_19.log	Energy: -1107751.3567446
S         -1.01685        1.69053       -0.55381
O          0.25309        2.42167       -0.55227
O         -1.04886        0.58447       -1.54956
O         -1.53273        1.29620        0.76167
O         -2.16074        2.73855       -1.06540
H         -1.92224        3.03511       -1.95404
S          1.26275       -1.82978       -0.57332
O          0.24731       -2.88340       -0.76033
O          0.85712       -0.93146        0.56744
O          2.65137       -2.25971       -0.49819
O          1.21655       -0.87230       -1.86545
H          0.38535       -0.33410       -1.84156
H         -3.60728       -2.72573        0.53416
H         -2.55406       -2.51958        1.95610
H         -4.72947       -1.20237        2.09130
H         -3.28571       -0.19457        2.22951
H         -5.27834        0.09899        0.32883
H         -3.80206        0.83526        0.31671
H         -1.29707       -2.25698       -0.15932
H         -2.33656       -0.99862       -0.56748
C         -3.01160       -2.01010        1.10515
C         -3.86631       -0.81761        1.53963
N         -1.93420       -1.52458        0.21827
N         -4.28099       -0.05810        0.36551
H         -1.31439       -0.85051        0.69063
N          2.78495        0.86459        0.93283
C          3.79215        0.00989        1.60816
H          3.39318       -0.30385        2.57336
H          3.96414       -0.87069        0.98707
H          4.71335        0.58025        1.74840
C          3.24846        1.29836       -0.41215
H          3.49529        0.40929       -0.99313
H          2.43115        1.83638       -0.89188
H          4.12580        1.93880       -0.29218
C          2.35877        2.01154        1.77056
H          1.57913        2.55355        1.23424
H          1.96036        1.62662        2.71014
H          3.22219        2.65273        1.96447
H          1.94095        0.23995        0.78112
