34
2sa1ma1tma_41.log	Energy: -1048334.4941593
S         -0.04766       -1.86453        0.42630
O          0.04321       -1.36173       -1.07219
O         -0.27611       -0.70449        1.28109
O         -1.02235       -2.92946        0.44513
O          1.36334       -2.46590        0.71902
H          2.06773       -1.73807        0.63901
S          2.83926        0.69144       -0.39266
O          4.02343        1.24613       -1.01440
O          3.06415       -0.55995        0.36816
O          2.33976        1.79153        0.72320
O          1.62942        0.61136       -1.25174
H          3.11104        2.04429        1.24779
H          0.69952       -0.58077       -1.16098
N         -2.87987       -0.72932       -0.86562
H         -2.15082       -0.91965       -1.55092
C         -4.20037       -0.70104       -1.50558
H         -4.44896       -1.63414       -2.02314
H         -4.96921       -0.51539       -0.75039
H         -4.23729        0.11349       -2.23401
H         -2.81693       -1.51483       -0.21887
N         -2.20029        1.63558        0.40443
C         -3.21615        2.51629       -0.21400
H         -3.01632        2.59125       -1.28371
H         -4.20656        2.08633       -0.05674
H         -3.16487        3.50850        0.23954
C         -2.43238        1.46707        1.85985
H         -3.44550        1.09141        2.01382
H         -1.70896        0.74492        2.23628
H         -2.31308        2.43255        2.35704
C         -0.81955        2.11117        0.11922
H         -0.10888        1.46881        0.63309
H         -0.63325        2.05357       -0.95328
H         -0.72041        3.14272        0.46515
H         -2.34968        0.66997       -0.05257
