39
2sa1eda1tma_14.log	Energy: -1107752.2771630
S         -0.81447        1.93613       -0.53580
O         -1.42424        1.74733        0.77374
O          0.59135        2.35381       -0.56232
O         -1.06926        0.79185       -1.47256
O         -1.66706        3.17322       -1.16924
H         -1.25944        3.41779       -2.01088
S          1.03777       -1.86478       -0.65323
O          2.38518       -2.41560       -0.59768
O         -0.05397       -2.82757       -0.90541
O          0.69602       -0.99459        0.52074
O          1.08038       -0.84852       -1.90424
H          1.89897        0.04963        0.80888
H          0.32020       -0.22024       -1.83715
H         -2.48004       -2.22416        1.66304
H         -1.53388       -0.71635        1.58778
H         -3.81800       -0.32351        2.59042
H         -3.55654        0.58297        1.09971
H         -5.21294       -1.82204        1.38210
H         -5.57400       -0.40461        0.65063
H         -1.55258       -2.08654       -0.49170
H         -3.20544       -1.64462       -0.61735
C         -2.42760       -1.22293        1.22576
C         -3.69298       -0.42347        1.50485
N         -2.28764       -1.38570       -0.24237
N         -4.82639       -1.06342        0.83063
H         -1.97667       -0.49477       -0.68551
N          2.81320        0.54440        1.01770
C          2.51250        1.73763        1.84521
H          1.85301        2.38991        1.27254
H          2.00933        1.41247        2.75660
H          3.44898        2.24280        2.09424
C          3.64473       -0.45179        1.73724
H          3.15190       -0.70625        2.67607
H          3.72106       -1.34395        1.11359
H          4.62948       -0.02108        1.93315
C          3.41549        0.90972       -0.29226
H          3.56701       -0.00611       -0.86421
H          2.71559        1.55947       -0.81615
H          4.36700        1.41625       -0.11230
