34
2sa1ma1tma_29.log	Energy: -1048348.5076506
S         -0.78025       -0.21930       -1.03763
O         -1.88090       -0.64985       -1.89160
O          0.44400        0.26131       -1.72180
O         -1.23272        0.81232       -0.02810
O         -0.38633       -1.49955       -0.19058
H         -2.67534        0.32305        0.41828
H          0.44245       -1.28569        0.36073
S          3.04310       -0.70279        0.50588
O          3.94812       -1.66121        1.09159
O          1.65673       -0.66406        1.08309
O          3.55558        0.69594        0.42324
O          2.83271       -1.19739       -1.02081
H          2.32617        1.66768        0.28501
H          2.08498       -0.71235       -1.42473
N          1.39684        2.16033        0.08932
H          1.05633        1.74975       -0.79585
C          1.50691        3.62837        0.05360
H          0.53360        4.06967       -0.16255
H          1.87178        3.98605        1.01646
H          2.21781        3.90831       -0.72330
H          0.72519        1.82142        0.78119
N         -3.64210       -0.05482        0.67580
C         -3.51013       -1.53103        0.80423
H         -3.17752       -1.93075       -0.15353
H         -2.75613       -1.75174        1.55943
H         -4.47686       -1.95133        1.09101
C         -4.03118        0.57762        1.95602
H         -3.29391        0.31688        2.71579
H         -4.05289        1.65994        1.82473
H         -5.01846        0.21915        2.25622
C         -4.55176        0.31364       -0.43830
H         -4.59673        1.40076       -0.51113
H         -4.13323       -0.09512       -1.35838
H         -5.54651       -0.09248       -0.24091
