36
2sa1dma1eda_146.log	Energy: -1083075.6574236
S         -2.06439       -0.35228       -0.89798
O         -0.73542       -0.47353       -1.56109
O         -2.35343       -1.50314       -0.02296
O         -2.26385        0.97266       -0.31122
O         -3.16405       -0.41047       -2.07781
H         -3.23849       -1.32507       -2.38400
S          0.91614       -2.04501        1.02224
O          1.99741       -2.81067        1.57000
O          0.58475       -0.73819        1.57683
O          1.22293       -1.85066       -0.52951
O         -0.38014       -2.93966        1.03053
H          0.46041       -1.36464       -0.96709
H         -1.16990       -2.41319        0.71824
N          2.60875        0.88975       -1.10644
C          3.93357        1.39486       -0.75265
C          2.29678        1.03439       -2.52921
H          2.54887       -0.09743       -0.86185
H          3.97168        2.47453       -0.93018
H          4.12239        1.21289        0.30807
H          4.73696        0.92467       -1.33748
H          2.26489        2.09847       -2.78606
H          3.03929        0.54774       -3.17704
H          1.31317        0.60121       -2.72768
H          1.12065        3.29480        1.58782
H          0.55405        3.87473        0.00129
H         -1.00879        4.41209        1.94221
H         -1.77519        3.53072        0.61750
H         -1.84764        2.72679        3.18945
H         -1.95476        1.67760        1.92966
H          1.30213        1.55016       -0.21574
H          0.33396        1.12905        1.09142
C          0.34340        3.19053        0.82744
C         -1.03980        3.44667        1.42896
N          0.40820        1.80346        0.31691
N         -1.36951        2.38269        2.36801
H         -0.40308        1.60085       -0.28158
