26
2sa1eda_10.log	Energy: -998260.2087067
S          2.11345        0.65826       -0.00374
O          1.79387        1.94198       -0.66185
O          1.28901        0.40397        1.19133
O          2.15876       -0.47318       -0.94984
O          3.59822        0.81310        0.60045
H          4.22173        0.93012       -0.13024
S         -0.78525       -2.04231       -0.00488
O         -1.68050       -3.15576        0.09873
O         -1.30431       -0.75187       -0.46899
O         -0.12057       -1.81536        1.40856
O          0.41165       -2.46155       -0.93660
H          0.45093       -0.99468        1.40061
H          1.08798       -1.72882       -1.00187
H         -1.06869        1.36172        1.11875
H         -0.95338        3.11341        0.91866
H         -3.27618        2.23533        1.58571
H         -3.24193        3.31886        0.19216
H         -3.31973        0.38875       -0.09134
H         -4.53006        1.44902       -0.44125
H          0.11706        2.08074       -0.88665
H         -1.14077        0.99686       -1.10519
C         -1.42552        2.20894        0.53203
C         -2.94802        2.32116        0.53954
N         -0.92415        1.97289       -0.85282
N         -3.52553        1.34428       -0.37197
H         -1.37809        2.58202       -1.53161
