28
2sa1a1dma_12.log	Energy: -999033.0278075
S         -2.61942       -0.45419        0.10311
O         -2.89402        0.83242        0.74081
O         -1.40180       -0.39762       -0.77559
O         -2.60512       -1.63155        0.96912
O         -3.78305       -0.68968       -1.01192
H         -4.63330       -0.72658       -0.55276
S          2.66441       -0.28004       -0.07942
O          2.56394        1.04603       -0.72425
O          1.76580       -0.43695        1.07760
O          2.59293       -1.40490       -1.03168
O          4.14087       -0.33880        0.59129
H          4.79713       -0.22390       -0.10959
N         -0.00238        1.91804       -0.12019
C         -0.64705        2.93660       -0.97504
C         -0.05683        2.21922        1.33077
H         -0.48375        1.01253       -0.30007
H         -0.15883        3.90004       -0.82139
H         -0.54922        2.63207       -2.01696
H         -1.70222        2.99583       -0.70502
H          0.42845        3.18017        1.50892
H         -1.10268        2.24270        1.63750
H          0.47795        1.42636        1.85340
H          0.98688        1.75966       -0.40191
N          0.21699       -2.43766       -0.04299
H         -0.46336       -1.73960       -0.43726
H          0.53107       -2.04375        0.85182
H         -0.22687       -3.34318        0.07510
H          1.06352       -2.45376       -0.63594
