24
2sa1dma_09.log	Energy: -963521.8370249
S         -2.13368       -0.93386       -0.18911
O         -2.79512        0.36521       -0.43584
O         -2.82127       -2.11017       -0.67932
O         -0.68764       -0.81413       -0.53282
O         -2.06334       -1.08540        1.44390
H         -2.78387       -1.67015        1.71403
S          2.48012       -0.38125        0.11129
O          3.72683       -0.63898        0.77955
O          1.82138        0.90821        0.24818
O          2.68767       -0.52044       -1.48082
O          1.49914       -1.54016        0.45416
H          3.22580       -1.30435       -1.66449
H          0.55643       -1.34704        0.09463
N         -0.69346        2.06121       -0.08666
C         -0.79747        2.38356        1.35502
C         -0.45231        3.22251       -0.96554
H          0.08098        1.38690       -0.19403
H         -1.61817        3.08605        1.50506
H         -0.99926        1.45782        1.89446
H          0.14501        2.81463        1.69349
H         -1.27338        3.93267       -0.85937
H          0.49053        3.69338       -0.68459
H         -0.39600        2.87387       -1.99652
H         -1.55928        1.53991       -0.36387
