33
2sa1ma1eda_40.log	Energy: -1058428.8345384
S         -0.67738        2.03664       -0.38672
O         -0.69219        1.91598        1.06862
O          0.67667        1.83980       -0.97565
O         -1.71210        1.26971       -1.10616
O         -1.03540        3.59820       -0.64426
H         -1.10378        3.74081       -1.59838
S          1.69008       -1.72627       -0.38203
O          0.65168       -2.35223       -1.23139
O          2.87485       -2.51281       -0.11771
O          2.25522       -0.44013       -1.20607
O          1.04437       -1.12076        0.82984
H          1.53980        0.21299       -1.35404
H          1.65398        0.28507        1.29803
N          2.10561        1.24390        1.37103
H          1.81985        1.70363        0.48964
C          3.57259        1.11493        1.50454
H          4.03469        2.10199        1.51739
H          3.80210        0.57988        2.42553
H          3.93343        0.54007        0.65166
H          1.65830        1.75597        2.12907
H         -1.84634       -2.35159        1.32107
H         -1.33273       -0.65585        1.32033
H         -3.67422       -0.88069        2.21499
H         -3.61790        0.07985        0.73373
H         -4.55554       -2.68871        0.93382
H         -5.28456       -1.40622        0.22838
H         -0.89401       -1.88317       -0.80761
H         -2.59946       -1.94462       -0.98026
C         -2.04791       -1.36301        0.90097
C         -3.48866       -0.93029        1.13460
N         -1.81367       -1.43687       -0.56312
N         -4.38588       -1.83522        0.41211
H         -1.80026       -0.46969       -0.94192
