31
2sa1ma1dma_18.log	Energy: -1023695.0782579
S          2.28794       -0.24740       -0.13698
O          2.43500       -1.01659        1.10520
O          1.39359       -0.94279       -1.10393
O          1.98955        1.18034        0.01982
O          3.74842       -0.20254       -0.84115
H          4.08410       -1.10662       -0.90456
S         -2.16913       -0.20410       -0.36225
O         -3.40625       -0.94345       -0.23193
O         -2.27137        1.17875       -0.88151
O         -1.29372       -0.21172        0.85908
O         -1.32178       -1.05624       -1.45464
H         -0.47689       -1.61011        1.02176
H         -0.39253       -0.74117       -1.48960
N          0.04978       -2.51231        0.84758
H          0.53070       -2.33073       -0.04648
C         -0.88356       -3.65696        0.78730
H         -0.34143       -4.56608        0.52738
H         -1.36808       -3.77339        1.75612
H         -1.63666       -3.43591        0.03076
H          0.78961       -2.59142        1.54554
N         -0.31168        2.59954        0.33503
C          0.04246        3.82838       -0.40219
C         -0.65726        2.81061        1.75609
H         -1.10958        2.11282       -0.14474
H          0.91833        4.28650        0.05939
H          0.27206        3.56195       -1.43362
H         -0.80058        4.52062       -0.37866
H          0.20331        3.23511        2.27557
H         -1.50814        3.49074        1.82050
H         -0.92146        1.84250        2.18046
H          0.49191        1.94024        0.27485
