36
2sa1dma1eda_25.log	Energy: -1083090.5355163
S          1.29589        2.08543       -0.22795
O          2.07499        1.77594        0.97871
O          1.40120        1.06126       -1.28664
O         -0.09539        2.50778        0.02660
O          2.05250        3.39888       -0.80484
H          1.60080        3.67726       -1.61312
S         -0.43670       -2.04027       -0.65466
O         -1.74013       -1.45177       -1.05833
O         -0.34492       -3.48313       -0.70354
O          0.65564       -1.52265       -1.72562
O         -0.00774       -1.41243        0.64014
H          0.76561       -0.54881       -1.63831
H          1.57282       -1.18753        0.84317
N          2.57693       -0.93204        1.06031
C          3.45547       -1.38428       -0.03995
C          2.91797       -1.48698        2.38413
H          2.56089        0.10742        1.09328
H          3.31846       -2.45610       -0.18805
H          3.16760       -0.85339       -0.94607
H          4.49430       -1.16392        0.21275
H          2.83831       -2.57434        2.34450
H          3.93460       -1.19629        2.65437
H          2.21261       -1.09749        3.11813
H         -3.55999        2.33317        0.29174
H         -3.27338        1.46049       -1.22861
H         -5.50167        0.83599       -0.26778
H         -4.40217       -0.54784       -0.32344
H         -5.18399        0.92348        2.07563
H         -5.05437       -0.69302        1.84196
H         -1.36803        1.39573        0.35350
H         -2.36643        0.48941        1.38522
C         -3.41497        1.34464       -0.15270
C         -4.58363        0.41565        0.16248
N         -2.18436        0.75403        0.41350
N         -4.64554        0.20298        1.60811
H         -1.95057       -0.12688       -0.11616
