33
2sa1ma1eda_144.log	Energy: -1058413.5125456
S          0.07171       -2.03061       -0.31630
O          1.53263       -2.53782       -0.55635
O         -0.81480       -3.15879       -0.29006
O          0.11088       -1.44085        1.16454
O         -0.20535       -0.92022       -1.22636
H          0.73091       -0.65044        1.21530
H         -0.62766        0.85662       -0.80523
S          2.77839        0.82271        0.26143
O          3.88886        1.56598        0.81190
O          1.56786        0.72518        1.13391
O          2.14701        1.73729       -0.95618
O          3.11987       -0.47544       -0.35028
H          2.86531        1.97674       -1.55729
H          2.17793       -1.76425       -0.55063
N         -0.77229        1.61524       -0.12287
H         -1.55886        1.28748        0.49386
C         -1.01615        2.91815       -0.77120
H         -1.11743        3.68482       -0.00244
H         -0.16766        3.15501       -1.41193
H         -1.93866        2.84554       -1.34593
H          0.09421        1.60636        0.43845
H         -5.30616        0.37822        0.75888
H         -5.05320       -0.08281       -0.92405
H         -3.78712       -1.52919        0.61728
H         -2.74127       -0.67844       -0.52201
H         -3.17950        0.23195        2.23972
H         -1.86560       -0.57041        1.69969
H         -4.81457        2.19568       -0.93890
H         -3.91575        2.25012        0.41539
C         -4.56158        0.36119       -0.05391
C         -3.40020       -0.54015        0.34069
N         -4.09605        1.70247       -0.42024
N         -2.60374        0.07309        1.41673
