33
2sa1ma1eda_180.log	Energy: -1058406.9901369
S         -0.10553        0.32082       -0.83947
O         -1.44310        0.20005       -1.42128
O          1.00776        0.04129       -1.76931
O          0.08806        1.58376       -0.08617
O         -0.08694       -0.86501        0.26310
H         -1.38562        1.97277        0.61141
H          0.83292       -0.98556        0.58927
S          3.70373       -0.35124        0.35813
O          2.56830       -1.03817        0.94779
O          5.04142       -0.84988        0.53380
O          3.47346       -0.11773       -1.16536
O          3.61621        1.13129        0.98255
H          2.48211       -0.01351       -1.39618
H          4.41853        1.61838        0.74579
N         -2.38710        2.00598        0.93339
H         -2.63651        0.98230        1.19987
C         -3.25514        2.50535       -0.15647
H         -4.30186        2.41522        0.13742
H         -3.01691        3.54720       -0.37215
H         -3.05368        1.89358       -1.03591
H         -2.44881        2.58781        1.76558
H         -4.31754       -2.20844        1.62087
H         -4.98245       -0.56274        1.72644
H         -5.41676       -1.60313       -0.45717
H         -4.41692       -0.16046       -0.64048
H         -3.79244       -2.53297       -1.69880
H         -2.62950       -1.47137       -1.23995
H         -2.68552       -0.78696        2.56548
H         -2.16993       -1.13238        1.06677
C         -4.21310       -1.18170        1.24882
C         -4.41913       -1.19571       -0.26328
N         -2.89171       -0.62411        1.58332
N         -3.41369       -2.02836       -0.90842
