31
2sa1a1tma_46.log	Energy: -1023656.0775968
S         -2.05089       -1.66867        0.17675
O         -3.44961       -1.61882        0.49837
O         -1.03318       -1.45440        1.19033
O         -1.69486       -3.11604       -0.41986
O         -1.81232       -0.70512       -1.03642
H         -2.44105       -3.43290       -0.95008
H         -0.83601       -0.52839       -1.17129
S          1.83001       -0.09584       -0.31848
O          2.74543        1.00804       -0.48193
O          0.75680       -0.28613       -1.29095
O          2.60554       -1.44143       -0.23829
O          1.18482        0.07844        1.11760
H          3.58597       -1.27125        0.11891
H          0.39576       -0.50857        1.22019
N          4.98683       -0.86524        0.56925
H          5.73586       -1.34723        0.08211
H          5.14227       -0.96361        1.56789
H          5.03801        0.12448        0.33660
N         -1.52274        3.28046        0.05869
C         -0.30511        3.90813        0.54110
H         -0.01612        4.72120       -0.13180
H         -0.47513        4.33299        1.53527
H          0.54078        3.19699        0.60656
C         -1.95916        2.23284        0.96341
H         -2.16219        2.65728        1.95130
H         -2.88009        1.77560        0.59045
H         -1.20021        1.43663        1.08575
C         -1.34501        2.77323       -1.29033
H         -2.27463        2.31512       -1.64035
H         -1.09362        3.59736       -1.96507
H         -0.53930        2.01854       -1.36016
