34
2sa1ma1tma_25.log	Energy: -1048348.5329957
S          2.81535       -0.52380       -0.01289
O          4.09833       -1.18008       -0.16940
O          2.89333        0.91019        0.36130
O          1.80356       -0.75287       -1.06610
O          2.07007       -1.26193        1.26845
H          2.72319       -1.37122        1.97217
S         -2.83535       -0.06569        0.03537
O         -1.92655       -0.53717        1.11698
O         -3.01364        1.38716        0.03251
O         -2.50161       -0.68244       -1.25933
O         -4.29827       -0.70198        0.37498
H         -4.71424       -0.14180        1.04333
N         -0.38669       -2.24972       -0.38130
H         -0.76020       -1.75870        0.45441
H         -1.12624       -2.07298       -1.07609
C         -0.10532       -3.67697       -0.13951
H          0.24252       -4.13791       -1.06362
H          0.67309       -3.75073        0.61915
H         -1.01284       -4.17223        0.20515
H          0.46833       -1.73500       -0.68314
N          0.67933        2.35723       -0.08641
C          1.11370        3.76578       -0.22718
H          1.72362        4.03586        0.63540
H          1.70611        3.86551       -1.13697
H          0.23267        4.40875       -0.28087
C         -0.08207        1.89417       -1.27730
H          0.52102        2.07430       -2.16720
H         -0.26557        0.82656       -1.18213
H         -1.03532        2.42197       -1.32418
C         -0.07441        2.13849        1.17794
H         -0.30884        1.07833        1.27705
H          0.55110        2.46676        2.00873
H         -1.01154        2.69548        1.13881
H          1.55152        1.77040       -0.00476
