34
2sa1ma1tma_47.log	Energy: -1048332.6795902
S          0.24944       -0.34475       -0.90035
O          0.73209        0.02223        0.46368
O         -0.79928        0.59342       -1.36759
O          1.34304       -0.56781       -1.83941
O         -0.44764       -1.78149       -0.75050
H         -1.27875       -1.67603       -0.23589
S         -3.56566        0.02561        0.52856
O         -2.71360       -1.13917        0.68599
O         -4.47607        0.41927        1.57085
O         -2.72139        1.27450        0.13168
O         -4.40799       -0.29692       -0.80724
H         -1.92758        1.01988       -0.47015
H         -5.10670        0.36564       -0.90595
N          2.49196        2.41637        0.74090
H          1.62370        1.93629        0.96891
C          2.41449        2.89084       -0.64510
H          1.61156        3.61673       -0.82771
H          3.36525        3.35329       -0.92923
H          2.24371        2.03806       -1.30839
H          2.57346        3.20565        1.37370
N          3.30989       -0.74723        0.60551
C          3.78291       -0.45136        1.97798
H          3.84796        0.63254        2.07919
H          3.05911       -0.84827        2.69086
H          4.75785       -0.91967        2.13194
C          3.09254       -2.19927        0.38335
H          2.36701       -2.55910        1.11322
H          2.68969       -2.33417       -0.62066
H          4.04301       -2.72486        0.49798
C          4.20103       -0.15926       -0.42571
H          3.73471       -0.31167       -1.39901
H          4.29123        0.90653       -0.21682
H          5.17428       -0.65324       -0.37396
H          2.35792       -0.30331        0.51302
