26
2sa1eda_55.log	Energy: -998253.2768229
S         -1.01946        1.60533       -0.07125
O          0.26289        2.06845       -0.66877
O         -1.95405        0.99162       -1.00689
O         -0.78745        0.81964        1.15926
O         -1.76667        2.96909        0.37635
H         -1.15107        3.50162        0.89799
S          2.65477       -0.48722       -0.10823
O          4.00038       -0.91506       -0.38329
O          1.52408       -1.31780       -0.49835
O          2.46504       -0.35574        1.49146
O          2.49006        0.95863       -0.62605
H          3.24709        0.07124        1.86999
H          1.52057        1.34351       -0.60770
H         -1.40217       -1.32467       -1.28055
H         -1.20393       -3.07344       -1.02682
H         -3.60081       -2.35819       -1.35978
H         -3.33512       -3.21746        0.16004
H         -3.44499       -0.28355       -0.02816
H         -4.55900       -1.26661        0.69278
H          0.10581       -1.82983        0.48646
H         -1.14844       -0.88983        0.99742
C         -1.62398       -2.15623       -0.60976
C         -3.12344       -2.28077       -0.37123
N         -0.91126       -1.85219        0.66459
N         -3.58064       -1.17258        0.45049
H         -1.13924       -2.51761        1.40074
