31
2sa1ma1dma_82.log	Energy: -1023671.3706175
S          0.63023       -1.82920        0.01955
O          1.74062       -2.74813       -0.13373
O         -0.72224       -2.43998        0.02015
O          0.78179       -0.86618        1.14664
O          0.69273       -0.90797       -1.32068
H          2.25853       -0.19306        1.10010
H         -0.11793       -0.35524       -1.33942
S         -2.70490        0.37940       -0.11571
O         -4.00304        0.90942       -0.43812
O         -1.56479        0.64267       -0.98068
O         -2.23725        0.99438        1.30323
O         -2.84813       -1.13589        0.17248
H         -2.97509        0.93807        1.92709
H         -1.94354       -1.65477        0.14580
N          3.15491        0.33662        0.90006
H          2.83849        1.32930        0.64203
C          3.88120       -0.30210       -0.22524
H          4.79688        0.25283       -0.43266
H          4.10138       -1.33935        0.02345
H          3.22619       -0.29328       -1.09617
H          3.71726        0.35851        1.74735
N          1.96381        2.68952        0.09089
C          0.69893        2.59726        0.83520
C          1.76732        2.50146       -1.35159
H          2.37848        3.60269        0.25077
H          0.29523        1.58594        0.74347
H          0.88305        2.79813        1.89386
H         -0.05721        3.30070        0.46379
H          1.41727        1.48171       -1.53110
H          1.02454        3.19462       -1.76802
H          2.71803        2.64081       -1.87291
