28
2sa1a1dma_01.log	Energy: -999034.4999635
S          2.30630       -0.24853       -0.23256
O          1.53763       -0.31559        1.06038
O          2.31232        1.14176       -0.73456
O          3.57112       -0.95079       -0.21690
O          1.38733       -1.11969       -1.25456
H          0.48436       -0.72634       -1.29904
S         -2.14129       -0.56282       -0.10123
O         -1.12984       -0.03453       -1.06414
O         -1.91388       -1.99489        0.19395
O         -2.33056        0.31839        1.04052
O         -3.55887       -0.51521       -0.88137
H         -3.55537       -1.19550       -1.56858
N          0.01341        2.25483        0.19152
C         -0.04336        2.44823        1.65684
C         -0.46786        3.39970       -0.60669
H          0.98286        1.98850       -0.10406
H         -1.08437        2.56448        1.95785
H          0.38510        1.56162        2.12182
H          0.53947        3.33286        1.91889
H         -1.51590        3.58654       -0.36886
H          0.13250        4.27998       -0.37281
H         -0.36685        3.15357       -1.66359
H         -0.54153        1.42297       -0.06987
N          0.53355       -2.74676        1.09829
H          0.55757       -3.31246        1.94141
H          0.99228       -1.78859        1.24036
H          1.03741       -3.20717        0.34151
H         -0.45091       -2.55857        0.78949
