33
2sa1ma1eda_168.log	Energy: -1058412.0161928
S          1.32631       -1.05174       -0.03114
O          2.57351       -1.83287       -0.27748
O          0.12155       -1.89182        0.03366
O          1.49723       -0.12707        1.10082
O          1.21561       -0.16130       -1.36236
H          4.04081        0.04853        1.61260
H          0.31382        0.25451       -1.41477
S         -2.40003        0.46221       -0.68084
O         -3.71553        0.69676       -1.30604
O         -1.23988        0.86633       -1.48298
O         -2.36359        1.01265        0.70939
O         -2.35552       -1.13260       -0.52288
H         -3.87828        0.95402        1.23343
H         -1.43580       -1.43058       -0.27853
N         -4.91761        0.72606        1.10591
H         -5.51726        1.39037        1.58754
C         -5.17773       -0.68446        1.48167
H         -6.20954       -0.94557        1.24709
H         -4.49130       -1.30763        0.90678
H         -4.98680       -0.81365        2.54650
H         -4.97534        0.84222        0.07601
H          3.15540        1.16525       -0.90589
H          4.42675        2.38818       -0.87654
H          5.28042       -0.03095       -1.03129
H          5.94955        0.91829        0.32831
H          3.72999       -1.11041        0.40751
H          5.21488       -1.09817        1.26937
H          3.60419        3.01656        1.13928
H          2.52398        1.75823        1.13836
C          3.97454        1.57234       -0.30503
C          5.04110        0.48835       -0.10131
N          3.49658        2.02162        1.00035
N          4.49813       -0.49978        0.86760
