27
2sa1tma_18.log	Energy: -988181.3565037
S         -0.86018       -1.82731       -0.12504
O         -1.96191       -2.75412       -0.17957
O          0.50254       -2.43624       -0.21423
O         -0.94572       -0.65334       -1.03738
O         -0.92712       -1.17234        1.36755
H         -1.31636        0.72423       -0.33657
H         -0.06398       -0.73946        1.53413
S          2.29396        0.42560        0.10932
O          1.39382        0.36138        1.25430
O          3.61009        0.98821        0.25760
O          2.38324       -0.92320       -0.61790
O          1.46067        1.37067       -0.92800
H          1.53392       -1.57987       -0.46318
H          1.97304        1.45923       -1.74441
N         -1.83971        1.59657       -0.03349
C         -3.22726        1.13213        0.21919
H         -3.61366        0.67505       -0.69166
H         -3.19821        0.38162        1.00945
H         -3.84594        1.98212        0.51560
C         -1.21799        2.16340        1.18768
H         -1.27779        1.42190        1.98316
H         -0.17162        2.38272        0.98175
H         -1.75752        3.07011        1.47127
C         -1.76091        2.53317       -1.17886
H         -0.71320        2.78491       -1.34173
H         -2.15947        2.03632       -2.06364
H         -2.33978        3.43207       -0.95508
