28
2sa1a1dma_75.log	Energy: -998995.6208699
S         -1.99011        0.65584        0.29880
O         -2.98039        1.69670        0.42254
O         -0.91141        0.57917        1.28163
O         -2.66128       -0.74793        0.26105
O         -1.35056        0.82415       -1.14152
H         -3.63196       -0.67241       -0.15388
H         -0.57458        0.22148       -1.23760
S          1.51934       -1.50606       -0.08693
O          2.91494       -1.80942       -0.23811
O          0.76006       -0.88875       -1.15835
O          0.71241       -2.85669        0.22944
O          1.36220       -0.67437        1.23383
H          1.25743       -3.42936        0.78928
H          0.46989       -0.21316        1.27672
N          3.14948        1.96345        0.41520
C          4.09968        1.70235       -0.65236
C          1.86576        2.43055       -0.07718
H          3.01909        1.12689        0.97228
H          4.34704        2.64388       -1.15563
H          5.02223        1.29289       -0.23286
H          3.72584        0.99847       -1.41717
H          1.98518        3.42394       -0.52385
H          1.42277        1.77362       -0.84767
H          1.15588        2.51755        0.74960
N         -5.03028       -0.39258       -0.69177
H         -5.76582       -0.90091       -0.21069
H         -5.12996       -0.55766       -1.68877
H         -5.16560        0.60182       -0.52058
