33
2sa1ma1eda_114.log	Energy: -1058415.3642006
S          2.33590        0.12818       -0.69577
O          3.62024        0.59316       -1.12847
O          2.54705       -1.20610        0.11307
O          1.47327        1.01312        0.09252
O          1.51953       -0.31971       -1.97505
H         -0.50181        0.97024        0.14991
H          0.59451       -0.58599       -1.70893
S         -1.06808       -1.90476        0.03875
O         -1.76557       -3.10928       -0.35788
O         -0.88165       -0.86909       -1.01611
O         -2.09290       -1.10137        1.05492
O          0.16730       -2.09183        0.82570
H         -2.64306       -1.75982        1.49941
H          1.66967       -1.57330        0.42597
N          0.39139        1.88215        2.79363
H          1.25124        1.96086        2.25391
C          0.30176        0.53135        3.37097
H          1.12539        0.29477        4.05384
H         -0.64176        0.43256        3.91383
H          0.30421       -0.20603        2.56431
H          0.42534        2.58453        3.52516
H         -2.11295        3.43085        0.02565
H         -0.40784        3.27502       -0.48228
H         -2.11044        3.05743       -2.38280
H         -0.98645        1.70725       -2.23937
H         -3.70025        1.46740       -2.23048
H         -2.66937        0.34255       -1.61561
H         -0.78004        1.89888        1.47825
H         -2.07021        1.11093        0.63871
C         -1.36586        2.75725       -0.40053
C         -1.83071        2.21013       -1.75048
N         -1.19142        1.62726        0.53876
N         -2.96579        1.31252       -1.55331
