37
2sa1dma1tma_01.log	Energy: -1073022.0991233
S         -0.30777       -1.90062       -0.19640
O         -0.23516       -1.27800        1.28917
O         -1.28091       -2.97199       -0.09447
O         -0.78124       -0.75176       -1.05162
O          1.06530       -2.29061       -0.57316
H          2.49665        0.13461        0.49200
S          0.70322        2.01854        0.10086
O         -0.73844        2.25204        0.24497
O          1.58596        3.16535        0.07026
O          1.16124        0.95726        1.08507
O          0.91731        1.30111       -1.34007
H          0.24669       -0.40161        1.26541
H          0.29475        0.53185       -1.38438
N          3.10640       -0.58700        0.03295
C          3.85875       -1.32288        1.06919
C          3.93444        0.05057       -1.01239
H          2.40602       -1.23899       -0.38506
H          4.52537       -0.63433        1.59019
H          3.14449       -1.75318        1.77151
H          4.43541       -2.12123        0.59988
H          4.62939        0.74721       -0.54136
H          4.48507       -0.71861       -1.55634
H          3.27044        0.59643       -1.68246
N         -3.07783        0.27751       -0.00583
C         -3.56324        1.50273       -0.68929
H         -2.87611        2.31586       -0.45885
H         -3.57142        1.32141       -1.76457
H         -4.57402        1.72462       -0.33966
C         -3.89602       -0.91638       -0.34336
H         -3.91955       -1.02923       -1.42727
H         -3.42402       -1.79889        0.09078
H         -4.90612       -0.77587        0.04714
C         -2.96975        0.47042        1.46517
H         -2.54765       -0.43592        1.89928
H         -2.29744        1.30870        1.64550
H         -3.96648        0.66563        1.86740
H         -2.11633        0.06709       -0.36762
