33
2sa1ma1eda_07.log	Energy: -1058430.3150215
S         -1.03601        1.78567       -0.41770
O         -0.00761        2.71924       -0.91878
O         -0.53594        1.10391        0.83047
O         -2.39026        2.29216       -0.31716
O         -1.15527        0.58091       -1.49345
H         -0.33900        0.02732       -1.48484
S          1.87691       -1.56450       -0.23498
O          0.75267       -1.31601       -1.16670
O          2.88167       -0.47885       -0.26270
O          1.45784       -1.98140        1.10437
O          2.63905       -2.87410       -0.81039
H          2.94691       -2.67732       -1.70579
N          2.09651        1.96686        0.64635
H          1.38080        1.70586        1.33361
H          2.46818        1.06256        0.27243
C          3.15227        2.84308        1.18641
H          3.85439        3.08520        0.38931
H          2.70324        3.75937        1.56926
H          3.67828        2.32383        1.98739
H          1.52191        2.40989       -0.10313
H         -2.87229       -2.67649        1.65088
H         -2.58794       -1.17280        2.56896
H         -4.62998       -1.06240        1.02999
H         -3.43441        0.19512        0.71572
H         -4.27242       -1.79154       -1.09242
H         -3.14050       -0.61332       -1.33273
H         -0.52430       -2.03921        1.36399
H         -1.37573       -1.78184       -0.03817
C         -2.62633       -1.61489        1.57134
C         -3.61700       -0.88351        0.65694
N         -1.29045       -1.49843        0.94769
N         -3.44177       -1.35866       -0.71350
H         -0.97246       -0.49627        0.94113
