33
2sa1ma1eda_141.log	Energy: -1058413.7809000
S         -1.82825        0.43960       -0.74958
O         -0.59062        0.52816       -1.55703
O         -3.06275        0.86519       -1.43410
O         -2.08867       -1.07979       -0.40713
O         -1.66003        1.16330        0.55146
H         -1.23027       -1.59629       -0.18463
H         -3.30262        1.31250        1.15892
S          1.37108       -1.88754        0.19343
O          2.43246       -2.85649        0.33111
O          0.00164       -2.44240        0.03517
O          1.38991       -0.79535        1.21067
O          1.66966       -1.12408       -1.22453
H          1.26722        0.68163        0.71661
H          0.83442       -0.72952       -1.54585
N         -4.31661        1.14859        0.93886
H         -4.89452        1.91410        1.27711
C         -4.75452       -0.18087        1.43940
H         -5.77594       -0.37132        1.11240
H         -4.07828       -0.92643        1.01937
H         -4.69438       -0.19277        2.52702
H         -4.26649        1.15214       -0.10360
H          3.56126        0.76729        1.28537
H          3.55703        2.52245        1.53731
H          2.69178        2.87270       -0.76394
H          2.80960        1.12607       -1.08286
H          0.97768        2.34680        0.88529
H          0.58235        1.54882       -0.51739
H          5.72551        2.05220        0.89866
H          5.28302        1.09547       -0.34660
C          3.70213        1.73652        0.78600
C          2.65137        1.88099       -0.30932
N          5.01819        1.91815        0.18598
N          1.28996        1.63371        0.22995
