31
2sa1ma1dma_53.log	Energy: -1023680.9669316
S          1.36486       -1.56364        0.21101
O          1.65527       -1.02327       -1.11965
O          1.58670       -0.63265        1.32278
O          0.02866       -2.22864        0.30169
O          2.43731       -2.76722        0.35744
H          2.25678       -3.24050        1.18134
S         -2.28136       -0.26665       -0.34184
O         -3.63772        0.17767       -0.47609
O         -1.18713        0.65861       -0.59891
O         -2.09895       -0.85315        1.12617
O         -2.09007       -1.54949       -1.25864
H         -1.25485       -1.37433        1.13574
H         -1.21763       -1.95524       -1.04081
N          0.32440        2.08190        1.69264
H          0.13065        1.08827        1.80438
C         -0.89843        2.88010        1.83728
H         -1.39273        2.74576        2.80632
H         -0.65855        3.93964        1.71386
H         -1.59781        2.59438        1.04981
H          0.99632        2.31433        2.41788
N          1.45188        1.76276       -0.81323
C          2.90426        1.92536       -0.60656
C          0.86707        2.66099       -1.82624
H          1.28005        0.77404       -1.06433
H          3.10689        2.94463       -0.27178
H          3.21746        1.20908        0.15344
H          3.43322        1.72659       -1.53981
H          1.01732        3.69664       -1.51502
H          1.35222        2.49401       -2.78968
H         -0.19760        2.44237       -1.90134
H          0.96806        1.91871        0.13216
