36
2sa1dma1eda_158.log	Energy: -1083070.4847878
S          0.95929        0.34842        0.40768
O          0.86811       -1.12666        0.14526
O          0.84445        1.12770       -0.83834
O         -0.00073        0.79877        1.44290
O          2.38531        0.55827        1.02140
H          3.07528       -0.01261        0.45404
S         -2.52477       -1.95151       -0.28701
O         -2.70004       -0.54321       -0.58981
O         -3.45059       -2.92914       -0.80151
O         -1.09095       -2.42760       -0.62420
O         -2.56950       -1.99124        1.32899
H         -0.31726       -1.79750       -0.29650
H         -2.57083       -2.91461        1.61865
N          3.95808       -0.91439       -0.38483
C          4.02849       -2.21575        0.28575
C          5.26775       -0.32915       -0.67058
H          3.43002       -1.01708       -1.24833
H          4.50629       -2.08547        1.26072
H          3.01193       -2.58053        0.44290
H          4.60356       -2.95075       -0.29296
H          5.78514       -0.14121        0.27422
H          5.89588       -0.98587       -1.28753
H          5.13416        0.62531       -1.18416
H         -2.88444        3.86050       -0.07045
H         -2.27209        3.44020        1.55455
H         -0.81773        5.12099        0.31288
H          0.04532        3.65666        0.79547
H         -0.16190        4.60759       -1.78778
H          0.30991        3.07701       -1.36173
H         -2.86800        1.44663        0.13024
H         -1.65548        1.91869       -0.88680
C         -2.06690        3.39268        0.48290
C         -0.72976        4.04711        0.12522
N         -1.99379        1.96923        0.08237
N         -0.42266        3.77736       -1.27490
H         -1.27920        1.45161        0.66597
