36
2sa1dma1eda_01.log	Energy: -1083096.2613958
S         -0.49185       -1.77456        0.23859
O         -1.63332       -2.66537        0.18588
O         -0.44738       -1.08176       -1.22038
O         -0.68720       -0.61766        1.18672
O          0.82874       -2.39810        0.45771
H          2.29777       -1.54895        0.27099
S          1.15426        2.01968       -0.08290
O          2.28698        2.91839       -0.05944
O         -0.18111        2.62461       -0.23613
O          1.32876        0.87653       -1.05988
O          1.18514        1.28634        1.36082
H          0.19496       -0.31867       -1.21132
H          0.49994        0.56796        1.37975
N          3.07767       -0.96912       -0.11420
C          3.76380       -1.74479       -1.16760
C          3.95516       -0.46964        0.96711
H          2.56696       -0.16422       -0.54891
H          4.24895       -2.61265       -0.71877
H          3.02020       -2.07659       -1.89225
H          4.50528       -1.11181       -1.65691
H          4.40836       -1.31740        1.48299
H          4.72856        0.16569        0.53340
H          3.34625        0.11989        1.65239
H         -3.62077        1.53048       -1.46588
H         -2.41777        0.21782       -1.58997
H         -4.74960       -0.70119       -1.36562
H         -3.69593       -1.18274       -0.03750
H         -5.85636        0.78336        0.09574
H         -5.44538       -0.38164        1.16722
H         -1.75619        1.93183        0.03659
H         -3.18613        1.54286        0.91187
C         -3.16481        0.68336       -0.94640
C         -4.21025       -0.32689       -0.48704
N         -2.47304        1.21072        0.25666
N         -5.07160        0.30013        0.51867
H         -1.92685        0.44571        0.71848
