26
2sa1eda_16.log	Energy: -998259.3353829
S          0.04345        2.12811        0.06266
O          0.18577        3.49341        0.51299
O         -0.04235        1.07364        1.09976
O         -1.50596        2.01824       -0.56198
O          0.90206        1.71747       -1.06756
H         -1.66395        2.79635       -1.11350
H          2.07489        0.56942       -1.01155
S          2.16911       -1.33342       -0.01711
O          3.18871       -2.32720        0.13126
O          2.75026       -0.15808       -0.88551
O          0.87224       -1.72921       -0.58177
O          1.90709       -0.68533        1.39816
H         -0.66721       -1.08808       -0.70141
H          1.18211        0.00112        1.34966
H         -1.89138       -2.14638        0.94341
H         -1.83520       -0.42941        1.40239
H         -4.18420       -1.37705        1.56147
H         -4.06859       -0.05479        0.39906
H         -4.23201       -2.90021       -0.27656
H         -5.11907       -1.65659       -0.85787
H         -2.22660       -1.32493       -1.35010
H         -1.74272        0.19668       -0.83217
C         -2.23962       -1.14324        0.68451
C         -3.75984       -1.08719        0.59240
N         -1.67324       -0.81636       -0.65065
N         -4.19716       -1.91821       -0.53020
