39
2sa1eda1tma_89.log	Energy: -1107736.9201363
S          1.41530        1.89750       -0.70151
O          0.02913        2.13963       -1.10516
O          1.53097        1.56104        0.74336
O          2.17866        0.95735       -1.54604
O          2.11944        3.33456       -0.90445
H          3.07891        3.21245       -0.89325
S          2.12867       -1.80766        0.58094
O          2.64084       -3.06057        1.05156
O          0.67807       -1.62441        0.46783
O          2.69400       -0.66170        1.50676
O          2.77414       -1.52106       -0.82781
H          2.28969        0.22204        1.25725
H          2.52197       -0.61264       -1.16020
H         -1.91604        0.21881        2.63632
H         -0.70394        1.47749        2.31642
H         -2.86849        2.55195        2.71499
H         -2.39025        2.78101        1.03180
H         -4.43352        0.90942        1.97640
H         -4.55698        2.06108        0.82412
H         -0.50692       -0.29919        0.73903
H         -2.08338       -0.16748        0.19258
C         -1.61374        1.00529        1.93884
C         -2.72204        2.03164        1.75798
N         -1.28748        0.36930        0.64689
N         -3.92543        1.38629        1.23878
H         -0.96412        1.08008       -0.03303
N         -2.79601       -1.33973       -0.92913
C         -1.78721       -1.40850       -1.98716
H         -1.67302       -0.42518       -2.45275
H         -0.82571       -1.70097       -1.55635
H         -2.06135       -2.13708       -2.76737
C         -2.90263       -2.61552       -0.22822
H         -1.93108       -2.88084        0.19844
H         -3.63269       -2.52887        0.58206
H         -3.22326       -3.42969       -0.89953
C         -4.08488       -0.90316       -1.45066
H         -4.79704       -0.80046       -0.62838
H         -3.97331        0.07508       -1.92559
H         -4.48948       -1.61244       -2.19280
