31
2sa1a1tma_03.log	Energy: -1023692.0371211
S          0.46940        1.78522        0.15699
O         -0.26246        1.27418        1.34557
O          1.81343        2.26440        0.43223
O          0.48742        0.70377       -0.91487
O         -0.36185        2.97064       -0.44100
H         -1.35740        2.69259       -0.50648
S         -1.76257       -1.57217        0.07343
O         -0.43374       -2.11995        0.31563
O         -2.89598       -2.43972       -0.07348
O         -2.10254       -0.52983        1.20822
O         -1.67971       -0.66379       -1.23104
H         -1.35477        0.14363        1.31361
H         -0.82453       -0.12490       -1.19827
N         -2.86381        2.14811       -0.57839
H         -2.88028        1.22592       -1.01192
H         -3.49290        2.75335       -1.09645
H         -3.23746        2.03727        0.36022
N          2.51713       -0.94967       -0.18163
C          2.48576       -2.28167       -0.83533
H          1.56158       -2.78371       -0.55128
H          2.51291       -2.14054       -1.91640
H          3.35752       -2.85530       -0.51290
C          3.70140       -0.14915       -0.58759
H          3.71556       -0.07097       -1.67504
H          3.60241        0.84641       -0.15368
H          4.60594       -0.64794       -0.23312
C          2.40907       -1.05510        1.29969
H          2.39973       -0.04760        1.71680
H          1.47390       -1.56177        1.53571
H          3.26704       -1.61722        1.67495
H          1.67419       -0.40920       -0.50312
