30
2sa1a1eda_137.log	Energy: -1033759.1984587
S          0.24420        1.62562       -0.20855
O          1.43556        2.43648       -0.35101
O          0.39100        0.25155       -0.79787
O          0.13969        1.37881        1.39683
O         -1.04602        2.22330       -0.60497
H         -0.68726        0.88528        1.56765
H         -2.43000        1.36928       -0.45461
S         -2.67746       -0.70606        0.02727
O         -3.19793        0.72800       -0.33704
O         -3.79443       -1.59931        0.08353
O         -1.75483       -1.11505       -1.18193
O         -1.79881       -0.58851        1.21019
H         -0.89911       -0.57047       -1.13831
H         -0.03537       -1.33334        1.24077
H          3.07193        0.58721       -0.86998
H          4.69447        0.37035       -0.22926
H          4.35584       -1.48132       -1.58615
H          4.16855       -2.11837        0.04926
H          1.84606       -1.30102       -1.55514
H          2.43531       -2.83356       -1.56917
H          3.81138       -0.00372        1.86388
H          2.73515        1.06631        1.26053
C          3.67148       -0.02505       -0.19132
C          3.70606       -1.46437       -0.70068
N          3.09178        0.11781        1.15738
N          2.36358       -1.98951       -1.01000
N          0.93052       -1.67627        1.33254
H          1.61349       -0.88391        1.49094
H          1.30398       -2.04360        0.41072
H          0.98755       -2.37194        2.07012
