30
2sa1a1eda_200.log	Energy: -1033729.8791204
S         -2.12974       -0.68584       -0.23719
O         -3.01309       -1.82550       -0.17264
O         -0.95104       -0.74413       -1.09562
O         -2.91311        0.60170       -0.62781
O         -1.65255       -0.41772        1.25168
H         -3.91247        0.53025       -0.29838
H         -0.94282        0.27392        1.25631
S          1.36009        1.66548        0.18147
O          2.72584        1.49277        0.60296
O          0.25275        1.45338        1.09747
O          1.18840        3.18869       -0.29327
O          1.10406        0.90997       -1.16842
H          2.04359        3.51577       -0.60760
H          0.36250        0.24243       -1.09039
H          2.85772       -3.00548       -0.96461
H          4.41141       -2.80639       -0.17382
H          2.75197       -3.03154        1.53627
H          3.32994       -1.35600        1.56685
H          0.83199       -2.17998        0.26236
H          0.95358       -1.39888        1.68441
H          2.82904       -0.64755       -1.36447
H          4.26196       -0.45610       -0.64164
C          3.45463       -2.30622       -0.36369
C          2.75368       -2.08007        0.97877
N          3.70567       -1.12101       -1.17079
N          1.41017       -1.52875        0.78739
N         -5.34763        0.25524        0.16420
H         -5.57497        0.66126        1.06669
H         -5.39179       -0.75781        0.25166
H         -6.05483        0.54791       -0.50294
