21
2sa1ma_31.log	Energy: -938832.1940859
S          2.25055       -0.29313       -0.04031
O          1.55310       -1.53720        0.23766
O          3.65972       -0.27174       -0.29754
O          1.54250        0.46050       -1.22608
O          1.90820        0.61841        1.23304
H          0.55822        0.34717       -1.17067
H          2.43053        1.43429        1.20305
S         -1.83200       -0.89863       -0.09828
O         -1.08517        0.00288       -0.96083
O         -3.18187       -1.26926       -0.40587
O         -1.01391       -2.21869        0.12822
O         -1.77700       -0.17735        1.33390
H         -0.04044       -2.02150        0.19302
H         -2.38954       -0.61684        1.94301
N         -1.76424        3.17369       -0.38947
H         -2.51684        3.28160        0.28089
C         -0.48145        3.02937        0.28821
H         -0.40818        2.16068        0.95999
H          0.31019        2.94883       -0.46380
H         -0.27907        3.93298        0.87159
H         -1.96786        2.34839       -0.94248
