33
2sa1ma1eda_167.log	Energy: -1058411.6882250
S          0.31002       -1.48449        0.21516
O          1.56797       -2.20978        0.25127
O         -0.90159       -2.31327       -0.02004
O          0.09531       -0.53561        1.33262
O          0.44695       -0.54280       -1.11149
H          0.87858        0.91022        1.07310
H         -0.42406       -0.11571       -1.25997
S         -3.14118        0.31728       -0.25733
O         -4.47310        0.70485       -0.63887
O         -2.00423        0.69424       -1.08818
O         -2.79092        1.00175        1.16279
O         -3.13600       -1.19956        0.04611
H         -3.51922        0.83903        1.77935
H         -2.18603       -1.64524        0.05512
N          1.31256        1.81882        0.78288
H          1.98036        2.06618        1.51069
C          0.27321        2.83502        0.52901
H          0.73202        3.74712        0.14511
H         -0.43116        2.43341       -0.20052
H         -0.26662        3.04755        1.45155
H          1.90646        1.60898       -0.07296
H          3.00457       -0.83535       -1.17132
H          4.40565       -0.19586       -2.03833
H          5.17201       -0.79387        0.09789
H          5.11370        0.97136        0.09942
H          3.01738       -0.73581        1.25116
H          4.14495        0.07831        2.10473
H          3.51964        1.97495       -1.79020
H          2.24235        1.04061       -2.20325
C          3.70364        0.00358       -1.21786
C          4.48860        0.06846        0.08698
N          2.91515        1.22565       -1.46438
N          3.59801        0.10388        1.25017
