26
2sa1eda_36.log	Energy: -998254.9107635
S          2.46491       -0.39214       -0.08818
O          2.81481       -0.55984       -1.48873
O          1.10377       -0.86566        0.29625
O          3.41646       -1.39726        0.76121
O          2.68165        0.96173        0.46655
H          4.28110       -1.41609        0.32903
H          1.11641        1.56750        0.88319
S         -2.07047       -1.44938       -0.07371
O         -3.24192       -1.93945       -0.74956
O         -1.92852       -0.02980        0.21117
O         -1.96939       -2.12875        1.38360
O         -0.81849       -1.99087       -0.81890
H         -2.15971       -3.07514        1.30713
H          0.05147       -1.58520       -0.43713
H          0.74345        3.09985       -0.78927
H         -0.01768        1.59311       -1.33300
H         -1.55803        3.57816       -1.63171
H         -2.22063        2.36148       -0.53268
H         -1.07240        4.93643        0.25339
H         -2.46506        4.23278        0.74493
H         -0.20317        2.53880        1.42407
H         -0.45943        0.98216        0.84093
C         -0.07996        2.40495       -0.60726
C         -1.43176        3.10961       -0.64803
N          0.11517        1.83334        0.74986
N         -1.50716        4.04700        0.47447
