33
2sa1ma1eda_29.log	Energy: -1058427.7868047
S          2.85412        0.41358       -0.13443
O          3.07521       -0.77641       -0.96093
O          2.51891        1.63573       -0.89437
O          1.91973        0.17812        0.99224
O          4.25156        0.73152        0.63114
H          4.92261        0.92775       -0.03678
S         -2.36329       -1.13867       -0.10651
O         -3.26466       -0.11888        0.43147
O         -1.26014       -0.56316       -0.92725
O         -1.86913       -2.14609        0.84337
O         -3.25001       -2.03246       -1.13684
H         -3.81057       -1.43525       -1.64943
N          0.82425       -2.24484        0.28305
H          0.77559       -2.04398       -0.71711
H          1.19725       -1.36661        0.70575
C          1.71188       -3.39067        0.56844
H          1.76884       -3.53027        1.64743
H          1.30653       -4.28883        0.10289
H          2.70005       -3.16559        0.16824
H         -0.15795       -2.37045        0.60602
H         -0.48044        3.96273       -0.21974
H         -1.03882        3.13526       -1.69119
H         -2.93100        3.84341       -0.10689
H         -2.91525        2.12047       -0.50268
H         -2.53772        3.24607        2.07211
H         -2.74215        1.66718        1.61480
H          0.82607        1.95790       -0.53494
H         -0.19059        1.81882        0.79531
C         -0.98819        3.07380       -0.60221
C         -2.37467        2.90952        0.02803
N         -0.16645        1.90195       -0.22812
N         -2.23472        2.52701        1.42955
H         -0.57303        1.01134       -0.58616
