36
2sa1dma1eda_54.log	Energy: -1083091.1611683
S         -2.15163       -1.17409       -0.35803
O         -1.56380       -2.40969       -0.89063
O         -1.76927       -0.88943        1.04235
O         -1.99254        0.00121       -1.23707
O         -3.74923       -1.42703       -0.24276
H         -4.07896       -1.68827       -1.11389
S          1.48503        1.27282       -1.14785
O          2.40409        2.32859       -1.50142
O          1.76209       -0.07074       -1.71465
O          1.23827        1.13312        0.33309
O          0.05751        1.72996       -1.74406
H         -0.19204        1.65153        0.90692
H         -0.58849        0.98867       -1.68900
N         -1.11779        1.75680        1.40111
C         -1.95363        2.77131        0.72593
C         -0.85272        2.02250        2.82867
H         -1.54146        0.81024        1.30213
H         -1.42993        3.72803        0.73389
H         -2.11749        2.45000       -0.30139
H         -2.90784        2.85898        1.24835
H         -0.33840        2.97956        2.92730
H         -1.79587        2.04779        3.37678
H         -0.22059        1.22391        3.21795
H          1.95291       -3.43675        1.23963
H          2.61661       -3.26804       -0.40930
H          4.11226       -2.30756        1.41333
H          3.67675       -1.15151        0.15149
H          3.30112       -0.72942        2.79465
H          2.41273        0.01731        1.62320
H          0.24648       -2.53326       -0.28053
H          0.69734       -1.43362        0.86699
C          2.24571       -2.72651        0.46334
C          3.28146       -1.73429        0.99289
N          1.03804       -1.96980        0.06084
N          2.67425       -0.88525        2.01670
H          1.27709       -1.26559       -0.68873
