34
2sa1ma1tma_31.log	Energy: -1048348.9821795
S          3.06979       -0.20518        0.50647
O          4.16981       -0.35984        1.42721
O          1.75355        0.16329        1.13219
O          3.31634        0.71729       -0.64214
O          2.83963       -1.66175       -0.13830
H          1.99916        1.40671       -1.08601
H          2.08955       -1.61095       -0.76778
S         -0.73076       -0.95925       -0.69078
O         -1.87196       -1.82273       -0.97551
O          0.46294       -1.09503       -1.53350
O         -1.16939        0.50286       -0.66064
O         -0.33008       -1.28716        0.81010
H         -2.61188        0.45671        0.02056
H          0.51727       -0.77423        1.03946
N          1.13009        2.02557       -1.21487
H          1.11778        2.38090       -2.16773
C          1.19383        3.10639       -0.20719
H          0.31794        3.75150       -0.28881
H          1.23085        2.62753        0.77131
H          2.10568        3.68347       -0.35889
H          0.28326        1.44126       -1.06713
N         -3.57609        0.36593        0.46996
C         -3.46353       -0.65201        1.54974
H         -3.15925       -1.59559        1.09807
H         -2.69591       -0.33313        2.25437
H         -4.43063       -0.74672        2.04898
C         -3.93430        1.69805        1.00575
H         -3.19054        1.99138        1.74718
H         -3.94051        2.42079        0.18916
H         -4.92242        1.65151        1.46882
C         -4.50261       -0.08011       -0.60161
H         -4.53636        0.68550       -1.37727
H         -4.10592       -1.00527       -1.02013
H         -5.49755       -0.23039       -0.17622
