39
2sa1eda1tma_77.log	Energy: -1107745.5057899
S         -0.67290       -1.57735       -0.44973
O         -0.90451       -0.34347       -1.45048
O         -0.40670       -0.96422        0.88354
O         -1.92691       -2.32167       -0.52611
O          0.53322       -2.30193       -0.92362
H          1.83407       -1.67270       -0.13662
S          1.03621        2.34193       -0.07488
O          2.16580        2.26054        0.85691
O         -0.29682        2.46199        0.51399
O          1.20260        3.76120       -0.86432
O          1.12529        1.29320       -1.13203
H          2.12840        3.84614       -1.12645
H         -0.12977        0.28766       -1.39672
H         -3.02495       -0.99238        1.50911
H         -3.72907        0.35261        2.43533
H         -5.34687       -0.83315        0.84224
H         -5.23451        0.91146        0.56539
H         -3.71767       -1.06759       -1.01214
H         -4.91511       -0.05402       -1.55626
H         -1.47138        0.48322        1.03439
H         -2.53553        0.85519       -0.17323
C         -3.46981        0.00223        1.43529
C         -4.67899       -0.03110        0.49778
N         -2.41707        0.87700        0.85686
N         -4.18939       -0.17609       -0.86294
H         -2.42064        1.84870        1.16018
N          2.78150       -1.54928        0.31232
C          3.30491       -2.92731        0.45631
H          2.64106       -3.48660        1.11561
H          3.31919       -3.40334       -0.52422
H          4.31217       -2.88854        0.87713
C          3.60645       -0.73184       -0.61255
H          3.69054       -1.26050       -1.56282
H          3.10141        0.22242       -0.76510
H          4.59415       -0.58452       -0.16968
C          2.60857       -0.88538        1.63204
H          2.31603        0.15299        1.47202
H          1.82624       -1.40958        2.17964
H          3.56147       -0.92691        2.16597
