37
2sa1dma1tma_33.log	Energy: -1073009.9037404
S         -0.27941       -1.87083       -0.54466
O          0.82420       -2.55796       -1.21180
O         -0.89654       -0.78275       -1.53762
O         -1.45759       -2.71673       -0.23308
O          0.16971       -1.10982        0.66207
H         -2.57755       -1.71114        0.32844
H          1.72755       -0.70024        0.56919
S         -0.08649        2.35103       -0.13352
O         -1.35380        1.95053        0.47223
O          1.03541        2.60498        0.77763
O          0.32330        1.49237       -1.28384
O         -0.45263        3.79628       -0.80328
H         -0.40454        0.09265       -1.47064
H          0.37143        4.19595       -1.11024
N         -3.30890       -1.06567        0.75621
C         -3.74960       -0.06156       -0.24896
C         -2.74358       -0.46166        1.99305
H         -4.09162       -1.67219        0.99790
H         -2.92270        0.62813       -0.42010
H         -4.00618       -0.58201       -1.17113
H         -4.61118        0.48050        0.14480
H         -1.90447        0.17169        1.70302
H         -3.51426        0.13620        2.48269
H         -2.40322       -1.26582        2.64513
N          2.77705       -0.57450        0.49316
C          3.18984        0.40043        1.53221
H          2.64723        1.33261        1.36360
H          2.93077       -0.00491        2.51117
H          4.26991        0.55324        1.46554
C          3.36706       -1.91744        0.70898
H          3.10597       -2.25861        1.71139
H          2.94266       -2.59893       -0.02920
H          4.45276       -1.85099        0.60547
C          3.05325       -0.07319       -0.87850
H          2.68322       -0.81361       -1.58888
H          2.51241        0.86260       -1.01973
H          4.13088        0.06832       -0.99218
