30
2sa1a1eda_109.log	Energy: -1033759.3997198
S         -1.54094       -1.33204       -0.59259
O         -0.34567       -1.99388       -1.13857
O         -1.39814       -0.97997        0.84061
O         -2.05103       -0.22961       -1.42394
O         -2.71226       -2.44516       -0.55295
H         -2.95050       -2.67395       -1.46235
S         -0.46637        2.28930        0.29606
O         -0.19562        3.64134        0.68343
O          0.63327        1.41103       -0.11252
O         -1.22449        1.58170        1.48960
O         -1.52224        2.31826       -0.87165
H         -1.35237        0.61117        1.29106
H         -1.72600        1.38967       -1.17403
H          3.84754       -1.10980        0.85507
H          3.26357       -2.41652       -0.20993
H          4.54275       -0.80051       -1.51283
H          2.85106       -0.71970       -2.00962
H          4.20692        1.44204       -1.41112
H          2.66975        1.35516       -0.85254
H          1.52626       -1.57555        1.35627
H          1.59761       -0.08986        0.56534
C          3.18484       -1.35138        0.02170
C          3.54545       -0.49251       -1.18532
N          1.79036       -1.09487        0.45586
N          3.58465        0.91452       -0.81265
H          1.10412       -1.42872       -0.24811
N          0.58676       -2.30628        2.70544
H          0.63345       -3.30924        2.85367
H         -0.33241       -2.08923        2.31706
H          0.65040       -1.86113        3.61558
