39
2sa1eda1tma_88.log	Energy: -1107738.0625173
S         -1.59331       -1.86162       -0.51516
O         -0.65038       -2.14887       -1.59427
O         -0.91193       -1.34006        0.70340
O         -2.76819       -1.04396       -0.87404
O         -2.18102       -3.31451       -0.12699
H         -3.00805       -3.19034        0.35894
S         -1.78248        1.96090        0.57789
O         -2.02558        3.25924        1.13401
O         -0.66252        1.77631       -0.34841
O         -1.60348        0.93995        1.76942
O         -3.10235        1.48465       -0.13856
H         -1.36229        0.03196        1.41423
H         -2.99772        0.55635       -0.49231
H          2.76384       -0.02891       -2.60726
H          1.17013        0.54355       -3.13281
H          2.62572        2.47515       -2.88665
H          1.36670        2.52087       -1.64901
H          4.17980        1.88565       -1.21162
H          3.21080        2.91640       -0.39540
H          0.76700       -0.97678       -1.41847
H          1.95644       -0.36590       -0.36468
C          1.88805        0.55521       -2.30918
C          2.26850        1.98985       -1.96745
N          1.26637       -0.11545       -1.14542
N          3.23377        2.02180       -0.87076
H          0.54816        0.49996       -0.73059
N          2.73732       -0.90160        1.05952
C          2.31865       -2.27868        1.32025
H          1.22765       -2.33685        1.29922
H          2.71783       -2.93741        0.54326
H          2.67918       -2.63651        2.29865
C          4.19014       -0.78409        1.01337
H          4.58864       -1.43809        0.23186
H          4.45629        0.24904        0.77922
H          4.65527       -1.06684        1.97255
C          2.16822        0.01766        2.04454
H          2.42503        1.04388        1.76895
H          1.08014       -0.08055        2.04874
H          2.54194       -0.18803        3.06053
