26
2sa1eda_12.log	Energy: -998260.5016909
S          0.59273        1.70444       -0.02349
O         -0.59518        1.99331       -0.84885
O          0.25311        0.87863        1.16555
O          1.75847        1.19041       -0.74658
O          1.10745        3.12661        0.53355
H          0.34618        3.62834        0.85713
S         -2.50964       -0.80191       -0.01764
O         -3.74084       -1.52049        0.11148
O         -1.35656       -1.47233       -0.62964
O         -2.79697        0.51878       -0.82447
O         -2.07852       -0.29933        1.41351
H         -1.97376        1.07919       -0.90561
H         -1.19236        0.16740        1.37409
H          1.64243       -0.97475        1.18441
H          1.47250       -2.72838        0.97889
H          3.84490       -1.94349        1.51726
H          3.71062       -2.95615        0.07696
H          3.81567       -0.01563       -0.07812
H          4.99501       -1.06991       -0.53657
H          0.32675       -1.54526       -0.73626
H          1.68706       -0.63311       -1.08873
C          1.93955       -1.82945        0.57287
C          3.45607       -1.97228        0.48870
N          1.36636       -1.56852       -0.77776
N          3.99719       -0.96065       -0.40629
H          1.66928       -2.25886       -1.46292
