31
2sa1ma1dma_20.log	Energy: -1023694.6695609
S         -2.05497       -0.53550       -0.39617
O         -2.14383       -0.17604        1.01344
O         -1.52106        0.56403       -1.25069
O         -1.40140       -1.82617       -0.69320
O         -3.60103       -0.71849       -0.85094
H         -3.61464       -1.02997       -1.76646
S          2.09824        0.94637       -0.36377
O          3.14375        1.94398       -0.32639
O          2.50864       -0.42760       -0.73867
O          1.22471        0.88883        0.85525
O          1.09618        1.46977       -1.53413
H          0.02080        1.96378        0.81131
H          0.29869        0.90122       -1.58265
N         -0.80082        2.58155        0.54466
H         -0.41713        3.40325        0.08069
C         -1.65974        2.91814        1.70077
H         -2.47979        3.55846        1.37539
H         -2.05542        1.98447        2.09823
H         -1.06134        3.43122        2.45340
H         -1.29943        2.01347       -0.16595
N          1.02509       -2.30462        0.49769
C          1.54894       -3.63213        0.12226
C          0.87661       -2.08849        1.95318
H          1.64662       -1.56123        0.08487
H          0.86311       -4.40554        0.47175
H          1.63810       -3.67921       -0.96302
H          2.53148       -3.77209        0.57544
H          0.17950       -2.82572        2.35492
H          1.85261       -2.18877        2.43032
H          0.49411       -1.08022        2.10443
H          0.09809       -2.15702        0.04539
