33
2sa1ma1eda_35.log	Energy: -1058427.2116986
S          2.82227       -0.15497       -0.07530
O          2.55274       -1.30515       -0.96434
O          3.05193        1.10637       -0.81217
O          1.85720       -0.02263        1.02388
O          4.21708       -0.49582        0.68212
H          4.90646       -0.60267        0.01261
S         -2.41533        1.00079        0.04961
O         -2.27190        2.31103        0.68910
O         -1.24806        0.73888       -0.86820
O         -2.72067       -0.14787        0.88699
O         -3.70641        1.10786       -0.93700
H         -3.69804        1.98097       -1.35065
N          0.76893        2.39577        0.08893
H          0.88379        1.93186        0.99461
H          1.65208        2.17953       -0.41265
C          0.47445        3.83855        0.20687
H          0.39467        4.26315       -0.79361
H         -0.47395        3.95346        0.72946
H          1.28329        4.32842        0.74886
H         -0.00032        1.86943       -0.38079
H          0.51278       -3.08226        0.84943
H         -0.28249       -1.59979        1.40794
H         -1.75724       -3.64325        1.69721
H         -2.46708       -2.41351        0.64489
H         -1.26644       -4.93999       -0.23693
H         -2.69799       -4.27261       -0.66492
H          0.84937       -1.67264       -0.89383
H         -0.56384       -2.50329       -1.33907
C         -0.32966       -2.40684        0.67815
C         -1.66193       -3.14783        0.72317
N         -0.15777       -1.82662       -0.68009
N         -1.73847       -4.06110       -0.42052
H         -0.64753       -0.91098       -0.77208
