36
2sa1dma1eda_83.log	Energy: -1083089.2691017
S         -0.13362        2.04093       -0.33369
O         -1.37808        1.71445        0.39067
O          1.10620        1.95929        0.44371
O         -0.08732        1.35610       -1.64795
O         -0.21474        3.63018       -0.66872
H         -1.00216        3.78170       -1.20813
S          0.78642       -1.84541       -0.55497
O          1.94372       -2.65118       -0.14488
O         -0.30745       -2.54508       -1.25680
O          0.26602       -0.99060        0.53944
O          1.46153       -0.81964       -1.61364
H          2.04614        0.42438        0.65885
H          0.86463       -0.04136       -1.75257
N          2.91470       -0.08594        0.91980
C          3.04620       -0.00560        2.38871
C          4.03786        0.49330        0.15406
H          2.76736       -1.07161        0.63543
H          3.11714        1.04372        2.67685
H          2.15464       -0.45104        2.82899
H          3.93800       -0.54833        2.70563
H          4.10096        1.55914        0.37494
H          4.96496       -0.01088        0.43107
H          3.82924        0.34401       -0.90494
H         -3.19258       -2.32467        0.71794
H         -1.93802       -1.33425        1.50195
H         -4.24686       -0.74659        2.36157
H         -3.46208        0.61270        1.54378
H         -5.64089       -1.01316        0.46504
H         -5.46750        0.61365        0.47184
H         -1.71252       -1.46423       -0.91544
H         -3.20635       -0.62951       -1.03371
C         -2.81793       -1.30713        0.85868
C         -3.90212       -0.37653        1.38750
N         -2.37449       -0.80019       -0.46212
N         -4.96505       -0.26112        0.38575
H         -1.88820        0.10633       -0.31296
