37
2sa1dma1tma_04.log	Energy: -1073019.3954486
S         -1.15724       -1.90267       -0.25188
O          0.22098       -2.31632       -0.02039
O         -1.90897       -1.48776        0.95448
O         -1.34896       -0.92458       -1.35236
O         -1.86332       -3.27577       -0.76536
H         -2.77605       -3.07367       -1.00941
S          0.63023        1.81350       -0.66195
O          0.57379        0.95638        0.57080
O         -0.62956        2.58239       -0.77687
O          1.86782        2.56498       -0.79952
O          0.66741        0.77111       -1.88558
H         -0.08185        0.12899       -1.78483
N         -2.41798        1.21917        0.76362
C         -3.77236        1.23448        0.18038
C         -2.29995        1.84687        2.09396
H         -2.10331        0.22709        0.83198
H         -4.10366        2.26685        0.05792
H         -3.72512        0.74160       -0.79074
H         -4.45592        0.69444        0.83750
H         -2.60591        2.89209        2.02793
H         -2.93146        1.31157        2.80496
H         -1.25428        1.78592        2.39503
H         -1.75604        1.70956        0.11455
N          2.75649       -0.58745        0.64042
C          3.02895       -1.15570       -0.70631
H          2.25384       -1.88805       -0.92820
H          2.98463       -0.34819       -1.43707
H          4.01941       -1.61730       -0.69789
C          3.71542        0.49547        0.97623
H          3.62139        1.28470        0.22864
H          3.45549        0.90207        1.95388
H          4.72674        0.08283        0.99476
C          2.70752       -1.63744        1.68608
H          2.45619       -1.16812        2.63794
H          1.93410       -2.35446        1.41386
H          3.68622       -2.11856        1.75508
H          1.80716       -0.12014        0.60349
