33
2sa1ma1eda_181.log	Energy: -1058408.3262050
S         -2.96732        0.39805        0.26552
O         -4.30309        0.93010        0.31853
O         -1.99578        0.94639       -0.67029
O         -2.26721        0.63280        1.70302
O         -3.05568       -1.14281        0.14109
H         -2.88664        0.36280        2.39619
H         -2.17844       -1.60250       -0.19573
S          0.31028       -1.58651       -0.50401
O          1.48735       -2.33405       -0.90919
O         -0.99407       -2.25521       -0.74851
O          0.35607       -1.03144        0.87175
O          0.31414       -0.29075       -1.48936
H          1.22045        0.33553        1.21680
H         -0.52791        0.19157       -1.33919
N          1.93575        2.20895       -1.17734
H          2.82144        2.57184       -1.51380
C          0.82051        3.09463       -1.53198
H          0.70422        3.23891       -2.61221
H         -0.10992        2.67313       -1.14280
H          0.96759        4.07267       -1.06601
H          1.81344        1.29036       -1.60208
H          3.90564        1.48514        1.76153
H          3.07033        0.44152        2.93508
H          4.59148       -0.89665        1.53750
H          2.91486       -1.37472        1.28560
H          4.67264       -0.25744       -0.65316
H          3.23752       -1.04574       -0.84467
H          1.43897        1.81753        1.97411
H          1.97784        1.61219        0.37368
C          3.18398        0.67059        1.87180
C          3.63641       -0.57227        1.10574
N          1.87660        1.14640        1.34716
N          3.71619       -0.31230       -0.32761
