30
2sa1a1eda_67.log	Energy: -1033764.9750598
S         -1.96769       -1.13477       -0.15451
O         -1.19211       -0.62140        1.01833
O         -1.59799       -2.55635       -0.40299
O         -3.38554       -0.84815       -0.14816
O         -1.40150       -0.29746       -1.42130
H         -0.41842       -0.26542       -1.39146
S          2.29060       -0.12984       -0.24169
O          2.48676       -1.58528       -0.09470
O          1.27038        0.22475       -1.24470
O          2.14132        0.58799        1.03635
O          3.69462        0.44862       -0.80288
H          3.89980       -0.00494       -1.63229
H         -0.81397        3.88511        1.37543
H          0.81571        3.54269        0.73715
H         -0.80377        3.88658       -1.13107
H         -0.22090        2.22068       -1.11849
H         -2.90284        3.09927       -0.46067
H         -2.37291        1.62671       -1.00737
H         -0.23900        2.00217        2.54557
H         -0.99925        1.27828        1.25433
C         -0.21141        3.17660        0.80239
C         -0.83681        2.94247       -0.57282
N         -0.19859        1.88160        1.53649
N         -2.17231        2.40428       -0.38890
H          0.66924        1.33665        1.31879
N          0.46052       -2.91400        1.17997
H         -0.33996       -2.95259        0.47160
H          1.30363       -2.51175        0.71293
H          0.13448       -2.23425        1.86995
H          0.65610       -3.81476        1.60486
