37
2sa1dma1tma_69.log	Energy: -1072985.1790139
S         -1.01218       -0.06833        1.08869
O          0.15434       -0.68719        1.74276
O         -1.16621        1.37158        1.27854
O         -0.82201       -0.30244       -0.51049
O         -2.27189       -0.81792        1.35360
H          0.12948       -0.44393       -0.72892
H         -3.30710       -0.47326        0.28319
S          2.93361       -0.90442       -0.35300
O          3.97979       -0.02008       -0.80487
O          1.70098       -1.06389       -1.10309
O          3.55271       -2.39338       -0.32201
O          2.64771       -0.64400        1.15594
H          4.49429       -2.32862       -0.10930
H          1.65449       -0.60602        1.36503
N          1.50421        1.96190       -0.11749
C          1.50048        2.34152       -1.51859
C          2.54233        2.63467        0.64657
H          0.59803        2.15070        0.30080
H          2.43075        2.00372       -1.98762
H          0.66871        1.84720       -2.03016
H          1.41163        3.43104       -1.68131
H          3.52394        2.30501        0.29172
H          2.49739        3.73559        0.56674
H          2.45393        2.35886        1.70056
N         -4.01014       -0.24208       -0.49914
C         -3.71165        1.14091       -0.95161
H         -3.75529        1.80865       -0.09108
H         -2.70033        1.15975       -1.35698
H         -4.44092        1.43680       -1.70962
C         -3.77830       -1.23621       -1.57484
H         -2.73329       -1.16702       -1.87716
H         -3.97236       -2.23291       -1.17776
H         -4.44469       -1.02643       -2.41505
C         -5.36207       -0.35324        0.09169
H         -5.49047       -1.35798        0.49539
H         -5.45215        0.37361        0.89936
H         -6.11555       -0.15702       -0.67495
