36
2sa1dma1eda_210.log	Energy: -1083068.9779242
S          0.62308       -1.63805       -0.11849
O         -0.55519       -2.54396        0.00709
O          1.89454       -2.32504       -0.28186
O          0.42004       -0.87392       -1.54274
O          0.60274       -0.57500        0.90533
H         -0.49010       -0.51363       -1.55544
H          2.23163        0.57124        1.23332
S         -3.03050       -0.18250        0.03597
O         -4.43811        0.05910       -0.14209
O         -2.07968        0.23681       -0.98684
O         -2.53093        0.64786        1.33436
O         -2.81283       -1.65516        0.43151
H         -3.14024        0.48389        2.06808
H         -1.81801       -2.00961        0.27814
N          0.09795        2.31613       -0.05200
C          0.03704        2.58985       -1.48935
C         -0.57220        3.34150        0.74669
H         -0.36227        1.42226        0.12413
H          0.58017        3.51537       -1.70694
H          0.51029        1.76762       -2.03172
H         -0.99476        2.69320       -1.84737
H         -0.06186        4.30107        0.61452
H         -1.62528        3.46466        0.46259
H         -0.53069        3.06469        1.80283
H          2.56508        0.32239       -1.06752
H          3.51862        1.81586       -1.10485
H          4.90997       -0.30410       -1.00686
H          5.26340        0.84604        0.28809
H          3.54529       -1.52040        0.61669
H          4.98826       -1.21347        1.35766
H          3.09405        1.99159        1.29957
H          1.56882        1.90227        0.41682
C          3.25841        0.94538       -0.49767
C          4.50186        0.15436       -0.09388
N          2.51412        1.40707        0.70096
N          4.16095       -0.78379        0.96328
