36
2sa1dma1eda_123.log	Energy: -1083082.1180540
S          0.34911       -1.65368       -0.36184
O          0.97332       -2.85258        0.17849
O          0.05799       -0.62474        0.70342
O          1.45089       -0.92657       -1.29470
O         -0.80554       -1.83002       -1.25207
H          2.34142       -1.05333       -0.84440
H         -2.33986       -1.26987       -0.94475
S         -3.14844        0.24024        0.35782
O         -4.48409        0.57794        0.75762
O         -3.24614       -0.94612       -0.67699
O         -2.26743        1.26816       -0.19010
O         -2.41613       -0.40356        1.60771
H          0.11308        1.01637       -0.04241
H         -1.45381       -0.54412        1.38306
N          0.54183        1.88067       -0.42815
C          0.15335        3.03539        0.40818
C          0.16998        2.01332       -1.85567
H          1.57783        1.73467       -0.36063
H         -0.92871        3.15260        0.36150
H          0.45424        2.83901        1.43800
H          0.65593        3.93121        0.03824
H         -0.91207        2.11576       -1.92605
H          0.66964        2.89041       -2.27241
H          0.49075        1.10838       -2.37140
H          5.13771        0.94471        0.74869
H          3.91537        1.84542        1.64940
H          3.90046       -0.48998        2.31544
H          2.36067       -0.08489        1.54009
H          4.54893       -1.48600        0.16394
H          3.12961       -2.13519        0.66917
H          3.87355        2.42251       -0.66793
H          3.56483        0.88672       -1.10493
C          4.05318        1.08406        0.87574
C          3.43223       -0.21956        1.36007
N          3.41956        1.56664       -0.36224
N          3.57210       -1.27425        0.34679
