36
2sa1dma1eda_56.log	Energy: -1083089.0519207
S          1.99586        1.29817       -0.40031
O          1.73284        0.34128       -1.49125
O          1.33187        2.60395       -0.58924
O          1.81327        0.71518        0.93685
O          3.59447        1.61084       -0.44272
H          3.78747        2.08239       -1.26441
S         -2.62460       -1.02081       -0.08909
O         -2.06269       -2.33520        0.28199
O         -3.30183       -0.30606        0.99330
O         -1.64044       -0.19310       -0.82861
O         -3.74516       -1.31417       -1.23334
H         -4.45728       -1.82779       -0.82861
N         -1.25662        2.22580        0.32136
C         -2.41055        3.05366       -0.08292
C         -1.12084        2.04700        1.78685
H         -1.37266        1.28162       -0.12172
H         -2.31281        4.05041        0.35021
H         -2.43241        3.11956       -1.17070
H         -3.32187        2.57213        0.27459
H         -1.06165        3.02795        2.26151
H         -1.98642        1.48952        2.14695
H         -0.20011        1.49245        1.97281
H         -0.36221        2.59122       -0.06061
H          1.39631       -3.82725        0.21816
H          1.67933       -3.16531       -1.41415
H          3.77837       -3.23620        0.01278
H          3.36873       -1.60692       -0.52632
H          3.61969       -2.44357        2.12334
H          3.02225       -0.98686        1.60889
H         -0.30844       -2.22350       -0.08684
H          0.86470       -1.50433        0.85253
C          1.68804       -2.93882       -0.34609
C          3.05098       -2.42686        0.12693
N          0.67463       -1.89021       -0.08166
N          2.94758       -1.99500        1.51742
H          0.77521       -1.09889       -0.74214
