30
2sa1a1eda_154.log	Energy: -1033753.3224161
S          1.02312       -1.01390        0.27023
O          2.28017       -1.80698        0.31275
O         -0.16577       -1.80053        0.64094
O          1.16072        0.26291        0.98479
O          0.88781       -0.67116       -1.29678
H          3.75914        0.64062        1.43985
H         -0.01420       -0.31031       -1.47036
S         -2.77459        0.09993       -0.66817
O         -4.13005        0.14574       -1.16793
O         -1.66069        0.22985       -1.59766
O         -2.56621        1.21118        0.42184
O         -2.64381       -1.25035        0.13110
H         -3.40383        1.23781        1.01870
H         -1.68076       -1.44906        0.35845
H          2.82198        0.82381       -1.28021
H          4.08888        1.98271       -1.67951
H          4.93344       -0.36861       -1.03205
H          5.64622        0.97961       -0.10109
H          3.44289       -0.87412        0.73175
H          4.93460       -0.55903        1.51021
H          3.34248        3.23711        0.06426
H          2.21124        2.08213        0.43888
C          3.65083        1.40264       -0.86215
C          4.72344        0.44095       -0.33082
N          3.19196        2.25245        0.23364
N          4.20678       -0.14307        0.93523
N         -4.83961        1.09947        1.75575
H         -5.22727        1.94053        2.16965
H         -4.84202        0.36636        2.45796
H         -5.44627        0.80520        0.99364
