33
2sa1ma1eda_108.log	Energy: -1058416.3112818
S          1.94978       -0.86186       -0.82039
O          1.87314        0.73861       -0.54056
O          1.40206       -1.48882        0.41331
O          1.17340       -1.16509       -2.01072
O          3.42112       -1.05050       -0.94000
H          4.13166       -0.10688        0.09061
S         -1.63534        1.85742       -0.02820
O         -2.60970        2.37935        0.91807
O         -2.18689        0.86308       -0.98045
O         -1.11467        3.10145       -0.94551
O         -0.36877        1.38669        0.58467
H         -1.86737        3.43598       -1.45117
H          0.96430        1.00016       -0.19862
N          4.23297        0.66367        0.83527
H          5.15701        1.08776        0.81808
C          3.86381        0.11794        2.16662
H          3.82796        0.92152        2.90161
H          2.88577       -0.35515        2.06500
H          4.60150       -0.62959        2.45575
H          3.52457        1.33489        0.51414
H         -1.77269       -2.41409        1.76057
H         -1.81136       -0.63841        1.67938
H         -4.13604       -1.57525        1.77941
H         -3.83235       -0.71171        0.26808
H         -4.01582       -3.61327        0.58574
H         -4.65657       -2.65383       -0.57485
H         -0.29412       -1.66465        0.05929
H         -1.65043       -2.38868       -0.67288
C         -2.08304       -1.55698        1.15609
C         -3.57241       -1.60787        0.83855
N         -1.31990       -1.59875       -0.11342
N         -3.84793       -2.78959        0.01886
H         -1.51079       -0.72165       -0.64599
