36
2sa1dma1eda_219.log	Energy: -1083066.9630415
S         -0.31476       -2.16132       -0.32422
O         -1.26061       -3.25563       -0.34347
O          1.09272       -2.52481       -0.64160
O         -0.74313       -0.95571       -1.08395
O         -0.29735       -1.68302        1.23372
H         -2.20671       -0.42222       -0.43337
H          0.39280       -0.99524        1.34198
S          2.72499        0.33457        0.28660
O          3.94202        1.00137        0.66199
O          1.58759        0.33475        1.20610
O          2.10108        1.03898       -1.01901
O          3.05545       -1.09593       -0.18550
H          2.76883        1.11678       -1.71556
H          2.19930       -1.68376       -0.39311
N         -2.89905        0.07389        0.17759
C         -3.40747       -0.85986        1.20669
C         -3.95654        0.69444       -0.63816
H         -2.28022        0.81876        0.63770
H         -3.92607       -1.68776        0.72115
H         -2.55701       -1.25237        1.76339
H         -4.08984       -0.32431        1.86998
H         -4.53130       -0.08179       -1.14630
H         -4.61755        1.27973        0.00423
H         -3.49714        1.34792       -1.37928
H          0.72988        3.02830       -0.41983
H         -0.37714        4.16577       -1.16998
H         -0.81211        4.03302        1.19215
H         -2.21685        3.43444        0.30185
H         -0.20925        1.51489        1.23732
H         -1.33468        2.07192        2.27257
H         -0.42120        1.22023       -1.43671
H         -1.57002        2.24921       -2.07312
C         -0.31669        3.17319       -0.70812
C         -1.17359        3.20892        0.56221
N         -0.62821        2.17619       -1.71126
N         -1.14472        1.92339        1.28577
