31
2sa1a1tma_06.log	Energy: -1023689.2390501
S          2.93773       -0.30016       -0.04524
O          2.86277       -1.34715       -1.07713
O          3.08502        1.06407       -0.55679
O          1.86476       -0.44592        0.97469
O          4.27616       -0.60317        0.83516
H          5.04290       -0.38122        0.29011
S         -2.58749       -0.87593        0.09999
O         -2.32648       -2.22326        0.61232
O         -2.94894        0.13234        1.09605
O         -1.50987       -0.40029       -0.82644
O         -3.84291       -1.00229       -0.93000
H         -4.58055       -1.40842       -0.45451
N          0.39148       -2.34848       -0.24013
H          1.13286       -2.73584       -0.82482
H         -0.22105       -3.03822        0.19287
H          0.87450       -1.74292        0.46697
H         -0.21198       -1.70559       -0.78160
N         -0.69734        2.11652       -0.07020
C          0.32851        2.64176       -1.00945
H          1.25232        2.06817       -0.90347
H         -0.05835        2.55551       -2.02571
H          0.51529        3.69103       -0.77016
C         -1.96428        2.88711       -0.14888
H         -2.31734        2.87651       -1.18078
H         -2.69947        2.40371        0.49412
H         -1.77340        3.91332        0.17209
C         -0.18886        2.03407        1.32710
H         -0.98039        1.61150        1.94699
H          0.68585        1.38062        1.34150
H          0.07144        3.04017        1.66304
H         -0.93190        1.14057       -0.36580
