33
2sa1ma1eda_24.log	Energy: -1058426.9725421
S          2.69653        0.42611        0.19406
O          2.23406        1.62043        0.93400
O          2.50225       -0.82655        0.95880
O          2.22233        0.33481       -1.18929
O          4.30177        0.62221        0.03623
H          4.67203        0.78785        0.91386
S         -2.07601       -1.21627        0.38845
O         -1.61688       -2.47307        0.97625
O         -2.13753       -0.07726        1.32903
O         -1.39617       -0.86005       -0.87950
O         -3.61072       -1.45284       -0.10784
H         -4.11634       -1.79063        0.64380
N          0.99942       -2.21079       -0.89454
H          1.48555       -1.87045       -0.03746
H          0.09023       -1.69745       -0.95077
C          0.78894       -3.67370       -0.89364
H          0.33386       -3.97231       -1.83791
H          1.74613       -4.17795       -0.76203
H          0.11224       -3.91045       -0.07311
H          1.57990       -1.87058       -1.66246
H          0.11520        2.98053       -1.06157
H         -0.35145        1.27547       -1.23649
H         -2.15059        2.78431       -2.13117
H         -2.70765        1.82118       -0.76086
H         -2.06422        4.67470       -0.70236
H         -3.36338        3.89613       -0.08397
H          0.53868        1.90510        0.96461
H         -0.85815        2.87031        1.16469
C         -0.60561        2.21853       -0.75464
C         -2.03864        2.63680       -1.04991
N         -0.46435        2.03853        0.71409
N         -2.36737        3.81945       -0.24910
H         -1.02512        1.21538        1.02754
