31
2sa1ma1dma_28.log	Energy: -1023689.1516506
S          0.78756        1.43321       -0.26624
O          1.11133        0.39947       -1.28760
O         -0.17855        2.44921       -0.72019
O          0.30015        0.78172        0.99486
O          2.11804        2.17664        0.05138
H          2.92270        1.48022        0.00751
S         -0.74220       -2.24426       -0.07207
O         -0.98714       -3.65026        0.06112
O         -1.88976       -1.33469       -0.18112
O          0.14175       -1.76795        1.14238
O          0.18438       -2.02795       -1.32586
H          0.23105       -0.75533        1.13540
H          0.49898       -1.07194       -1.37527
N          3.96097        0.39537       -0.10655
H          3.83702        0.02683       -1.04627
C          3.71806       -0.65996        0.89220
H          4.44375       -1.47689        0.83077
H          3.75736       -0.21944        1.89025
H          2.71769       -1.06846        0.74022
H          4.91101        0.74816       -0.03954
N         -2.52069        1.32462        0.13796
C         -3.70272        1.52509       -0.72474
C         -2.73448        1.63535        1.56872
H         -2.20803        0.33620        0.05776
H         -4.01939        2.56736       -0.66562
H         -3.43197        1.27861       -1.75118
H         -4.50720        0.86890       -0.39022
H         -3.04585        2.67619        1.66749
H         -3.50317        0.97210        1.96781
H         -1.78756        1.47658        2.08415
H         -1.71081        1.88542       -0.21713
