39
2sa1eda1tma_31.log	Energy: -1107748.8864908
S          1.16147       -1.66271       -0.82395
O          2.39116       -0.84699       -0.95078
O          0.66648       -1.79849        0.54545
O          0.13636       -1.29072       -1.81986
O          1.60419       -3.17969       -1.20727
H          1.92622       -3.17767       -2.11920
S         -1.49505        1.74977       -0.73117
O         -2.77077        2.35518       -0.39792
O         -0.52630        2.56099       -1.47873
O         -0.81068        1.11296        0.46759
O         -1.89121        0.47584       -1.63979
H         -1.54794       -0.35638        0.89209
H         -1.09301       -0.08860       -1.79156
H          3.53446        2.79620        0.30327
H          2.12427        3.15820        1.33548
H          3.71306        1.88624        2.63301
H          2.31599        0.85129        2.32101
H          4.66374       -0.08356        1.92317
H          3.64394       -0.28865        0.65581
H          1.42102        2.37675       -0.86282
H          2.19290        0.90381       -0.61311
C          2.68832        2.36392        0.84060
C          3.18701        1.33503        1.84752
N          1.77904        1.73354       -0.14724
N          4.12020        0.40861        1.22498
H          0.89601        1.39451        0.29942
N         -2.25417       -1.03655        1.27380
C         -1.69384       -1.58988        2.53062
H         -0.76495       -2.10618        2.29251
H         -1.49428       -0.76538        3.21597
H         -2.42165       -2.27485        2.97178
C         -3.48066       -0.23387        1.52035
H         -3.23682        0.57335        2.21048
H         -3.81214        0.20509        0.57942
H         -4.24967       -0.88452        1.94244
C         -2.49237       -2.09860        0.26220
H         -2.82425       -1.62231       -0.65957
H         -1.55347       -2.62148        0.09036
H         -3.25622       -2.78021        0.64411
