27
2sa1tma_34.log	Energy: -988152.4758950
S          0.31939        2.05232        0.17716
O          1.54353        2.78813        0.30626
O         -0.12927        1.14220        1.21648
O         -0.90679        3.07217        0.01099
O          0.35904        1.30624       -1.20435
H         -0.61761        3.84253       -0.50081
H         -0.34407        0.60440       -1.25286
S         -2.28502       -1.18636       -0.13630
O         -2.86166       -2.49199       -0.26820
O         -1.48430       -0.60550       -1.20074
O         -3.43823       -0.09835        0.10454
O         -1.47703       -1.16097        1.21178
H         -4.13150       -0.47885        0.66478
H         -0.94640       -0.32429        1.28281
N          3.11936       -1.71920       -0.32579
C          3.35676       -0.44711       -0.98410
H          4.36282       -0.43419       -1.41381
H          2.63649       -0.30770       -1.79494
H          3.26482        0.41376       -0.29347
C          1.76500       -1.79945        0.18529
H          1.05082       -1.67616       -0.63482
H          1.59226       -2.77986        0.63864
H          1.55539       -1.02606        0.95119
C          4.09188       -1.95376        0.72514
H          3.92286       -2.93570        1.17719
H          5.10145       -1.94178        0.30382
H          4.04308       -1.19045        1.52690
