33
2sa1ma1eda_16.log	Energy: -1058430.5448281
S          0.77402        1.82466       -0.29364
O          0.63212        0.94708        0.91279
O          2.10116        2.37759       -0.48644
O          0.57444        0.83050       -1.55153
O         -0.35935        2.78192       -0.32518
H         -1.51012        2.12279        0.63182
S         -1.82125       -1.57657       -0.11897
O         -0.63099       -2.42604       -0.05816
O         -2.30850       -1.08071        1.18575
O         -1.76293       -0.48171       -1.11637
O         -2.94529       -2.61089       -0.66427
H         -0.29865        0.37351       -1.47336
H         -3.76631       -2.12259       -0.80989
N         -2.30781        1.68837        1.17351
H         -2.13194        0.66379        1.26063
C         -3.58038        1.90975        0.45307
H         -4.40157        1.45494        1.00705
H         -3.74836        2.97943        0.33041
H         -3.48352        1.43620       -0.52362
H         -2.31350        2.09267        2.10708
H          3.00799       -2.39900       -0.79471
H          2.19312       -0.91360       -1.35636
H          4.65626       -0.53241       -1.01100
H          3.65619        0.48458        0.02337
H          5.22151       -1.83660        0.86975
H          5.04671       -0.38244        1.59584
H          1.00533       -2.01595        0.47877
H          2.38496       -1.72790        1.45381
C          2.74098       -1.37153       -0.53169
C          3.96858       -0.54903       -0.15659
N          1.83741       -1.42400        0.64477
N          4.55813       -1.09590        1.06903
H          1.44302       -0.46304        0.83956
