39
2sa1eda1tma_97.log	Energy: -1107738.0603272
S          0.92367       -2.07267       -0.00802
O         -0.43891       -2.32852        0.45455
O          0.96766       -1.29021       -1.27263
O          1.82553       -1.53613        1.03136
O          1.56952       -3.48301       -0.46774
H          1.74180       -4.01237        0.32334
S          2.26111        1.68127       -0.30885
O          2.99266        2.90777       -0.43831
O          0.80254        1.69866       -0.26529
O          2.70648        0.72132       -1.48917
O          2.79531        0.94863        0.98805
H          2.12757       -0.08838       -1.49857
H          2.42388        0.02624        1.05649
H         -2.14484       -0.97164       -2.52670
H         -2.45731       -1.56980       -0.89120
H         -4.54840       -0.65395       -1.94449
H         -4.09036        0.27729       -0.51728
H         -3.66262        1.13113       -3.28607
H         -4.41572        1.93238       -2.07562
H         -0.46919       -0.12277       -1.14962
H         -1.51240        1.15854       -1.41628
C         -2.44558       -0.67600       -1.51736
C         -3.79292        0.03497       -1.54324
N         -1.41883        0.23856       -0.97861
N         -3.66280        1.28798       -2.28354
H         -1.52749        0.35718        0.08898
N         -1.84144        0.55245        1.73577
C         -2.73134       -0.51512        2.18785
H         -3.66507       -0.49082        1.61621
H         -2.24299       -1.47893        2.02632
H         -2.98212       -0.41025        3.25604
C         -0.58082        0.52003        2.48328
H         -0.10958       -0.45647        2.35899
H          0.09367        1.28270        2.09043
H         -0.75186        0.70331        3.55645
C         -2.47447        1.86366        1.84790
H         -1.79053        2.62869        1.47087
H         -3.39109        1.88761        1.24863
H         -2.73607        2.10632        2.89052
