37
2sa1dma1tma_27.log	Energy: -1073009.8311061
S          2.81178       -0.32454        0.08084
O          3.04460        1.13758       -0.04920
O          2.41286       -0.78870        1.40049
O          1.93335       -0.81760       -1.01187
O          4.26720       -0.99826       -0.16164
H          4.65634       -0.60371       -0.95373
S         -2.88923        0.12639        0.05405
O         -2.46019       -0.32774        1.38318
O         -2.98316        1.58418       -0.09202
O         -2.13586       -0.54460       -1.03594
O         -4.39914       -0.44971       -0.18569
H         -5.00099        0.07560        0.35795
N         -0.25501       -2.29212       -0.19375
C         -0.36715       -3.45697       -1.09428
C         -0.29326       -2.62856        1.24709
H          0.62557       -1.78266       -0.41847
H         -1.32586       -3.94902       -0.92487
H         -0.31301       -3.10599       -2.12472
H          0.45104       -4.15070       -0.89468
H         -1.24727       -3.10577        1.47212
H          0.54216       -3.28936        1.48154
H         -0.20808       -1.70866        1.82100
H         -1.03009       -1.62163       -0.43110
N          0.66511        2.41512       -0.11000
C          0.03435        1.80843        1.09526
H         -0.00332        0.72806        0.96595
H          0.65016        2.04338        1.96359
H         -0.98209        2.18809        1.20122
C          0.77345        3.88545        0.02113
H          1.33079        4.12052        0.92845
H          1.30019        4.28323       -0.84673
H         -0.22997        4.31193        0.07714
C         -0.03566        2.01782       -1.36330
H          0.46211        2.50255       -2.20401
H          0.03448        0.93580       -1.46855
H         -1.08561        2.30691       -1.29354
H          1.63414        2.01261       -0.15432
