26
2sa1eda_29.log	Energy: -998257.8423057
S          0.66686       -1.75914        0.11530
O          1.69690       -1.03080        0.85966
O         -0.50368       -2.20510        0.89119
O          0.25160       -1.01784       -1.11477
O          1.42513       -3.09024       -0.38156
H          0.76986       -3.71321       -0.72633
S         -2.48493        0.72639       -0.05231
O         -3.88729        0.81720        0.22902
O         -1.75931        1.93616       -0.43653
O         -1.66355        0.17751        1.20276
O         -2.28338       -0.40107       -1.12939
H         -1.51202       -0.80461        1.18941
H         -1.31185       -0.64246       -1.23726
H          2.01148        3.29349       -0.60633
H          1.72690        3.15184        1.14685
H          4.14006        2.64670        0.40599
H          3.37819        1.36713        1.34962
H          4.42032        1.07201       -1.19210
H          3.41647        0.00216       -0.43642
H          0.00428        1.93039       -0.16240
H          1.24223        1.05070       -0.86995
C          2.00474        2.60686        0.24249
C          3.35103        1.89024        0.38601
N          0.97185        1.58025       -0.02933
N          3.52802        0.96743       -0.72991
H          0.95812        0.86695        0.71159
