34
2sa1ma1tma_51.log	Energy: -1048332.4612796
S          2.68842        0.98254        0.11260
O          3.78343        1.86210        0.42501
O          1.55016        0.87257        1.01219
O          2.01528        1.47315       -1.27184
O          3.26108       -0.41456       -0.23432
H          2.71688        1.65408       -1.91360
H          2.54960       -1.17642       -0.20325
S          0.14249       -2.09055       -0.04281
O         -0.65550       -3.29462        0.08022
O          1.61295       -2.28693       -0.07537
O         -0.29678       -1.17193       -1.13093
O         -0.15900       -1.27421        1.33237
H         -1.90730       -0.97714       -1.07937
H          0.46104       -0.51460        1.36727
N         -2.92047       -0.74396       -0.87327
H         -2.90879        0.29443       -0.58579
C         -3.42175       -1.59740        0.23189
H         -4.46713       -1.36024        0.43314
H         -3.30340       -2.64720       -0.03297
H         -2.81248       -1.39883        1.11337
H         -3.46406       -0.87021       -1.72362
N         -2.50497        1.82862        0.00549
C         -1.25321        2.12148       -0.70340
H         -0.55554        1.28919       -0.59027
H         -1.45906        2.25659       -1.76916
H         -0.77484        3.03400       -0.31803
C         -3.49255        2.88377       -0.20583
H         -3.68975        2.99770       -1.27540
H         -4.42869        2.62419        0.29678
H         -3.14410        3.85244        0.18686
C         -2.24616        1.63067        1.43435
H         -3.18161        1.38991        1.94804
H         -1.54683        0.80198        1.56659
H         -1.81151        2.53003        1.89663
