25
2sa1a1ma_25.log	Energy: -974366.0247386
S          2.16184       -0.95296        0.01871
O          3.35879       -1.72451        0.17034
O          2.26877        0.42369       -0.47587
O          1.19835       -1.75082       -0.95163
O          1.38933       -0.93438        1.38654
H          0.27676       -1.37604       -0.93237
H          0.58803       -0.31743        1.33406
S         -1.72835        0.46283        0.12481
O         -0.57639        0.68378        1.04964
O         -2.99496        0.16348        0.77344
O         -1.76257        1.54454       -0.88501
O         -1.31158       -0.87111       -0.69729
H         -0.30097        2.30310       -0.90968
H         -2.00899       -1.63315       -0.53100
N          0.68722        2.64866       -0.76839
H          1.27018        1.79480       -0.64602
C          0.76840        3.50750        0.43760
H          1.80739        3.78196        0.61827
H          0.15997        4.39884        0.28745
H          0.37932        2.92771        1.27343
H          1.00056        3.13229       -1.60712
N         -3.12446       -2.64866       -0.17405
H         -2.82340       -3.46162        0.35366
H         -3.68944       -2.96502       -0.95538
H         -3.70286       -2.06568        0.42853
