36
2sa1dma1eda_134.log	Energy: -1083076.7036576
S         -0.21124        2.13320        0.07582
O          1.18463        2.21194        0.50565
O         -0.38968        1.60256       -1.29569
O         -1.10976        1.47069        1.04996
O         -0.65866        3.68445        0.02652
H         -1.58430        3.73477       -0.24972
S         -2.22656       -1.25642       -0.70267
O         -3.14350       -2.30449       -1.04459
O         -0.90002       -1.57162       -0.18361
O         -2.05299       -0.33835       -1.98046
O         -2.94525       -0.30526        0.34125
H         -1.42400        0.40866       -1.77605
H         -2.30319        0.38972        0.65779
N          0.73397       -1.02466        2.18356
C          0.90074       -0.11059        3.31362
C          0.71242       -2.43516        2.56689
H         -0.13417       -0.80788        1.69610
H          1.87941       -0.27728        3.77611
H          0.84906        0.91806        2.95103
H          0.12851       -0.25305        4.08164
H          1.69293       -2.72376        2.96010
H         -0.04179       -2.64636        3.33733
H          0.48684       -3.04022        1.68626
H          1.89743       -1.92288       -0.98089
H          1.06875       -0.42217       -1.40115
H          2.84641       -0.97411       -3.08741
H          3.17847        0.55120       -2.26310
H          4.53096       -1.99310       -1.74769
H          5.18736       -0.52676       -2.04385
H          1.78613       -0.67192        1.03114
H          3.40614       -0.46355        0.34909
C          2.02884       -0.84508       -1.10767
C          3.12175       -0.53294       -2.12131
N          2.40823       -0.27900        0.20898
N          4.40903       -0.99686       -1.59766
H          2.23476        0.73907        0.22741
