21
2sa1ma_01.log	Energy: -938866.2490247
S          1.73608       -0.76448       -0.05786
O          2.38857        0.40392       -0.66207
O          1.01755       -0.39943        1.19423
O          0.89819       -1.57704       -0.95690
O          2.97021       -1.70786        0.36093
H          2.64151       -2.60864        0.49058
S         -2.16659       -0.23167       -0.01570
O         -1.47078        1.02714       -0.31402
O         -3.59487       -0.23391        0.07379
O         -1.74456       -1.29383       -1.09717
O         -1.58099       -0.79661        1.33718
H         -0.75217       -1.38921       -1.13805
H         -0.58389       -0.70348        1.35271
N          0.79446        2.38644        0.34936
H          0.97693        2.42161        1.35100
H          1.53089        1.77512       -0.07343
C          0.73300        3.72671       -0.27548
H          0.53547        3.59632       -1.33851
H         -0.07392        4.30134        0.17783
H          1.68535        4.23740       -0.13680
H         -0.09776        1.86378        0.21102
