30
2sa1a1eda_16.log	Energy: -1033767.5231624
S          1.00497       -2.01457       -0.22963
O          1.97040       -0.99533       -0.68320
O          0.87988       -2.13317        1.23185
O         -0.29421       -1.92695       -0.92567
O          1.64289       -3.44410       -0.64590
H          1.77808       -3.45027       -1.60356
S         -2.29702        1.07904       -0.21793
O         -3.62092        1.59475        0.04331
O         -1.47819        1.81963       -1.20480
O         -1.47004        0.80286        1.00894
O         -2.55172       -0.39767       -0.84406
H         -1.71460       -0.60871        1.61212
H         -1.68926       -0.82162       -1.04921
H          0.97792        2.91739        0.93730
H          0.98103        1.19281        1.32316
H          3.18033        2.25530        1.94758
H          3.37734        1.02391        0.69505
H          3.45584        3.92062        0.26824
H          4.50736        2.77714       -0.24399
H          0.14690        1.76043       -0.94376
H          1.75318        2.25559       -1.28967
C          1.45242        1.95960        0.70910
C          2.96243        2.01580        0.89885
N          1.16755        1.64485       -0.71230
N          3.52896        2.96429       -0.06232
H          1.43742        0.65757       -0.89077
N         -1.75270       -1.66219        1.82345
H         -2.14538       -1.85686        2.73935
H         -0.77176       -2.00984        1.73439
H         -2.32213       -2.08606        1.09138
