39
2sa1eda1tma_29.log	Energy: -1107749.4099530
S          0.46210        1.30232       -0.34293
O          0.09553        0.64252        0.93730
O          1.08141        0.16290       -1.27770
O         -0.70792        1.87705       -1.02228
O          1.61036        2.22901       -0.19296
H          2.88356        1.26873        0.05452
S         -0.77731       -2.59061       -0.05570
O         -0.50871       -4.00251       -0.19781
O         -2.09612       -2.22641        0.52656
O          0.33269       -2.05991        1.00461
O         -0.54864       -1.76641       -1.28819
H          0.19552       -1.09182        1.12763
H          0.44392       -0.63621       -1.33501
H         -3.82999        0.32217        1.57096
H         -2.21644        1.06782        1.49018
H         -4.01374        2.82641        1.55147
H         -3.08794        2.87343        0.04532
H         -5.79901        1.80523        0.34890
H         -5.22794        2.86097       -0.76328
H         -2.59899       -0.78728       -0.07574
H         -3.72006        0.23899       -0.87701
C         -3.16509        0.94435        0.96573
C         -3.80630        2.28187        0.62104
N         -2.88313        0.20798       -0.28903
N         -4.98826        2.04726       -0.21052
H         -2.10991        0.68490       -0.78609
N          3.73378        0.65707        0.23285
C          4.25396        0.24136       -1.09348
H          3.45333       -0.27532       -1.62133
H          4.54089        1.13255       -1.65234
H          5.11727       -0.41273       -0.95219
C          4.69782        1.50075        0.97589
H          4.92833        2.38417        0.37970
H          4.24040        1.80906        1.91617
H          5.60865        0.93029        1.17058
C          3.28699       -0.51221        1.03786
H          2.79571       -0.14654        1.93955
H          2.57192       -1.09594        0.45858
H          4.15791       -1.11908        1.29582
