39
2sa1eda1tma_06.log	Energy: -1107752.9897439
S         -0.26836        2.23479       -0.10130
O          1.05606        2.84740        0.11830
O         -0.58069        1.17818        0.91471
O         -1.37923        3.15493       -0.29027
O         -0.04632        1.41487       -1.48180
H         -0.46298        0.51694       -1.42951
S          0.03865       -1.90148       -0.40584
O          1.38305       -1.59589       -0.93293
O         -1.00009       -1.05342       -1.10546
O         -0.32146       -3.30023       -0.31274
O          0.00526       -1.34700        1.11241
H         -0.11037       -0.35494        1.07709
H          3.61518        1.10239        1.51818
H          2.30735       -0.10268        1.52028
H          4.55478       -1.21188        1.75799
H          3.70222       -1.70089        0.28679
H          5.99115        0.11878        0.42011
H          5.72231       -1.13338       -0.59879
H          2.19811        1.62062       -0.27511
H          3.59154        0.85968       -0.92487
C          3.18647        0.25235        0.98121
C          4.20558       -0.86308        0.77813
N          2.75066        0.73473       -0.35187
N          5.27363       -0.37671       -0.09770
H          2.15734        0.00020       -0.78916
N         -3.21409       -0.43679        0.28132
C         -3.09299       -0.32649        1.75736
H         -2.57596       -1.21145        2.12914
H         -2.50353        0.56112        1.98371
H         -4.09452       -0.25675        2.18809
C         -3.78882        0.79509       -0.31965
H         -3.15797        1.64827       -0.06076
H         -3.80725        0.67583       -1.40353
H         -4.80355        0.93351        0.06029
C         -3.95059       -1.66035       -0.12202
H         -3.95467       -1.72370       -1.20995
H         -3.42996       -2.52945        0.28128
H         -4.97122       -1.60932        0.26302
H         -2.25461       -0.56049       -0.13013
