33
2sa1ma1eda_13.log	Energy: -1058429.8216673
S          1.05430        1.75492       -0.46777
O          2.46548        1.98486       -0.71247
O          0.62437        0.70248       -1.62330
O          0.75177        1.03727        0.81234
O          0.16204        2.93043       -0.60484
H         -1.29347        2.63900        0.13560
S         -2.21016       -1.35518       -0.14591
O         -2.94085       -0.98896        1.06722
O         -1.06803       -2.25906        0.00314
O         -3.21926       -2.23387       -1.06315
O         -1.89200       -0.13836       -0.96105
H         -4.09135       -1.81835       -1.03675
H         -0.29276        0.37664       -1.45905
N         -2.15981        2.18464        0.53336
H         -2.97917        2.72659        0.26966
C         -2.05332        2.00596        2.00261
H         -2.87128        1.37481        2.34638
H         -1.09853        1.51921        2.19461
H         -2.07778        2.98354        2.48406
H         -2.20670        1.26350        0.04622
H          2.54873       -2.76747       -0.67028
H          2.05864       -1.17734       -1.31557
H          4.52951       -1.24768       -0.82675
H          3.67958       -0.03299        0.12536
H          4.71349       -2.58963        1.10890
H          4.80288       -1.10648        1.79122
H          0.59254       -1.99254        0.48980
H          1.95674       -1.90408        1.52057
C          2.46555       -1.69976       -0.44889
C          3.80342       -1.11107       -0.01615
N          1.50699       -1.54287        0.67444
N          4.20661       -1.72310        1.25321
H          1.28413       -0.52239        0.81933
