30
2sa1a1eda_125.log	Energy: -1033755.6494596
S         -1.88037       -0.73901        0.45126
O         -1.38011       -1.11278       -0.86514
O         -1.08142       -1.17686        1.59241
O         -2.12445        0.80621        0.49931
O         -3.33010       -1.25948        0.67144
H         -3.91871       -0.91141       -0.11259
S          1.13861        2.21277       -0.18463
O          1.83510        3.46106       -0.41073
O          1.73998        1.00177       -0.77845
O          1.27972        1.83539        1.41682
O         -0.32998        2.29962       -0.40868
H          0.92981        2.56911        1.93955
H         -1.33908        1.35980        0.11401
H          1.42765       -3.27782        0.07587
H          0.84659       -2.09650       -1.11925
H          3.08243       -3.04287       -1.80110
H          3.16883       -1.30450       -1.49311
H          4.21198       -3.40941        0.24418
H          4.90299       -1.99390       -0.20181
H          0.68806       -1.29219        1.18554
H          2.38752       -1.37274        1.26716
C          1.63285       -2.31232       -0.39457
C          3.02410       -2.27855       -1.01607
N          1.57464       -1.26608        0.65440
N          4.02426       -2.43378        0.04185
H          1.63860       -0.32543        0.18764
N         -4.58380       -0.23991       -1.38072
H         -5.47347       -0.61123       -1.69682
H         -3.90787       -0.34123       -2.13391
H         -4.69462        0.75413       -1.20219
