26
2sa1eda_13.log	Energy: -998258.9769809
S         -0.06909        2.17026       -0.12378
O          0.26833        3.56793       -0.28297
O         -1.47136        1.85682        0.20792
O          0.43959        1.22534       -1.14271
O          0.78447        1.68944        1.24124
H          1.10956        2.48981        1.67583
S          2.16932       -1.39870       -0.02517
O          3.16285       -2.42847       -0.02987
O          0.75133       -1.76239       -0.05482
O          2.41518       -0.51127        1.26786
O          2.46266       -0.41458       -1.21775
H          1.78974        0.25200        1.29737
H          1.74738        0.28429       -1.27135
H         -2.20073       -2.42313        0.71551
H         -1.95420       -0.89724        1.58741
H         -4.39659       -1.52593        1.51468
H         -4.07530        0.00520        0.69551
H         -4.63161       -2.54951       -0.61764
H         -5.26469       -1.07204       -0.92299
H         -0.79785       -1.08765       -0.58927
H         -2.34326       -1.02972       -1.31100
C         -2.41318       -1.35129        0.70823
C         -3.91166       -1.07553        0.63977
N         -1.77744       -0.76865       -0.49703
N         -4.42117       -1.55761       -0.64394
H         -1.75117        0.27131       -0.40324
