39
2sa1eda1tma_27.log	Energy: -1107747.4792632
S         -0.24927       -1.34054       -0.64660
O          0.95841       -2.19111       -0.79120
O         -0.26712       -0.69876        0.73552
O         -0.20430       -0.23805       -1.67374
O         -1.51014       -2.13868       -0.79269
H         -2.62326       -1.41227       -0.10249
S          0.27440        2.62203       -0.00164
O          1.65019        2.20177       -0.28993
O          0.02331        4.00669        0.28832
O         -0.64561        2.18234       -1.19424
O         -0.25790        1.76427        1.20983
H         -0.47507        1.18826       -1.42934
H         -0.19642        0.75436        1.00403
H          3.59053        0.41651        1.26169
H          2.13558       -0.60664        1.35868
H          4.17656       -1.88207        2.09625
H          3.42308       -2.58417        0.65943
H          5.89328       -1.00999        0.69795
H          5.60124       -2.44892       -0.02377
H          2.39150        0.64222       -0.72459
H          3.74476       -0.33886       -1.07005
C          3.10474       -0.48181        0.87243
C          3.97985       -1.71770        1.02918
N          2.85132       -0.27330       -0.57492
N          5.18735       -1.55647        0.21622
H          2.20255       -1.03542       -0.89719
N         -3.45548       -0.91180        0.38676
C         -3.38334        0.52588        0.02718
H         -2.48735        0.96003        0.46867
H         -3.32530        0.61624       -1.05790
H         -4.27180        1.03834        0.40476
C         -4.68398       -1.54854       -0.13337
H         -4.73694       -1.38289       -1.20985
H         -4.63543       -2.62024        0.06235
H         -5.56041       -1.11515        0.35512
C         -3.28400       -1.12197        1.84302
H         -3.33892       -2.19114        2.05059
H         -2.29634       -0.75377        2.12062
H         -4.07050       -0.59028        2.38490
