26
2sa1eda_95.log	Energy: -998250.6866709
S         -0.57801       -1.40845       -0.13142
O          0.78552       -1.91819       -0.40309
O         -1.66897       -2.17240       -0.70674
O         -0.74927       -1.06363        1.30890
O         -0.68117        0.03007       -0.89728
H          0.13310        0.54492       -0.69779
S          2.91719        0.66463        0.13527
O          3.92093        1.33125        0.92067
O          1.60352        1.26409       -0.04183
O          3.45380        0.49331       -1.37474
O          2.79379       -0.79859        0.64614
H          4.37424        0.19387       -1.35158
H          1.97254       -1.28022        0.24871
H         -3.32189       -0.70584        0.09575
H         -4.49685       -0.19763        1.32060
H         -4.94507        0.64178       -1.08128
H         -4.92192        1.91537        0.14688
H         -2.62513        1.27872       -1.58339
H         -3.47665        2.69346       -1.51395
H         -1.83387        0.06721        1.51713
H         -2.25179        1.52455        0.74417
C         -3.74030        0.15700        0.62015
C         -4.30046        1.17866       -0.37413
N         -2.61390        0.78402        1.37507
N         -3.17943        1.88492       -0.98310
H         -2.90080        1.20108        2.25688
