31
2sa1ma1dma_34.log	Energy: -1023686.8028952
S          2.15549       -1.16280       -0.15659
O          2.97542       -2.34569       -0.25941
O          0.70394       -1.41191        0.12773
O          2.67212       -0.12244        0.77939
O          2.17463       -0.49120       -1.62568
H          1.85904        1.18528        0.94548
H          1.51515        0.23449       -1.67001
S         -1.20042        1.02087       -1.00370
O         -2.34112        1.58546       -1.68882
O          0.14316        1.47254       -1.43037
O         -1.30016        1.12767        0.51026
O         -1.26428       -0.55871       -1.27206
H         -1.93373       -0.24546        1.08082
H         -0.44689       -0.97483       -0.84708
N          1.28401        2.08698        1.02469
H          1.32693        2.53273        0.10629
C          1.74996        2.95355        2.12195
H          1.15448        3.86628        2.15854
H          1.65379        2.41303        3.06328
H          2.79892        3.20083        1.96024
H          0.29419        1.79051        1.10778
N         -2.56753       -1.02530        1.43146
C         -1.92623       -2.35991        1.29392
C         -3.85022       -0.89395        0.69208
H         -2.72275       -0.82681        2.41936
H         -1.84061       -2.58595        0.23268
H         -0.92366       -2.31939        1.71746
H         -2.54631       -3.10591        1.79363
H         -3.63822       -1.04228       -0.36669
H         -4.55874       -1.64066        1.05345
H         -4.23886        0.11332        0.84017
