39
2sa1eda1tma_119.log	Energy: -1107723.4022143
S         -2.76589       -1.05893        0.00833
O         -1.95393       -1.97811       -0.75783
O         -2.57130       -0.99326        1.44859
O         -2.75573        0.35952       -0.62481
O         -4.31362       -1.42392       -0.15661
H         -4.51002       -1.56225       -1.09473
S          0.24801        2.30861       -0.54671
O          1.66834        2.30874       -0.86518
O         -0.11348        2.49742        0.86692
O         -0.40681        3.60882       -1.25812
O         -0.45277        1.12454       -1.14101
H          0.01880        3.72092       -2.11925
H         -1.79017        0.70857       -0.84160
H          0.71105       -1.69230        1.83170
H          0.63762       -0.56832        0.46699
H          2.96069       -0.78322        1.39266
H          2.35397        0.87091        1.46064
H          2.68337       -0.93447        3.73316
H          3.02117        0.65999        3.62063
H         -1.09317       -0.25163        2.23579
H          0.19224        0.25086        3.24864
C          0.84112       -0.64921        1.53415
C          2.23108       -0.13175        1.88189
N         -0.15400        0.16757        2.28537
N          2.36114       -0.05579        3.34210
H         -0.20345        1.12067        1.85851
N          2.48527       -1.73276       -1.03614
C          3.13675       -3.02757       -0.97989
H          3.96548       -2.99926       -0.26409
H          2.42286       -3.78812       -0.64888
H          3.54354       -3.34295       -1.96060
C          1.32543       -1.76317       -1.91585
H          0.60156       -2.50038       -1.55750
H          0.83549       -0.78583       -1.91879
H          1.59914       -2.01892       -2.95769
C          3.41415       -0.68791       -1.43678
H          2.91256        0.28361       -1.41508
H          4.25872       -0.65450       -0.73927
H          3.82074       -0.85375       -2.45308
