36
2sa1dma1eda_75.log	Energy: -1083091.8852264
S         -1.31416       -1.99267       -0.11927
O         -1.12877       -1.00790       -1.23412
O         -2.44748       -1.54874        0.73157
O         -1.30480       -3.38362       -0.50950
O          0.01505       -1.81689        0.80478
H          0.07124       -0.86953        1.07968
S          0.55467        1.65416       -0.05450
O          0.29165        0.83856        1.15671
O         -0.61396        2.46541       -0.43215
O          1.82855        2.40458        0.01121
O          0.85040        0.62101       -1.24514
H          0.09956       -0.05465       -1.31458
N         -2.93494        1.05473        0.19511
C         -3.78893        1.02369       -1.01031
C         -3.53529        1.71733        1.36886
H         -2.69650        0.05940        0.44581
H         -3.99666        2.04480       -1.33427
H         -3.24889        0.48023       -1.78576
H         -4.71917        0.50385       -0.77654
H         -3.76874        2.75449        1.12278
H         -4.44286        1.18511        1.65736
H         -2.81281        1.68738        2.18440
H         -2.04546        1.54045       -0.04225
H          5.26392       -0.40719        0.14841
H          4.55861        0.88554        1.15487
H          3.78221       -1.44907        1.84050
H          2.45744       -0.37629        1.38116
H          3.43404       -2.64033       -0.14775
H          1.90922       -2.03921        0.00936
H          4.40031        1.06393       -1.43202
H          3.18980       -0.09253       -1.21558
C          4.33587        0.09003        0.44215
C          3.32463       -0.92106        0.99592
N          3.72320        0.68436       -0.77598
N          2.89071       -1.78694       -0.09431
H          3.02107        1.43539       -0.51558
