36
2sa1dma1eda_152.log	Energy: -1083077.0032369
S         -0.81902       -0.01084       -1.33518
O         -1.84066       -0.33720       -2.32880
O          0.54088        0.26132       -1.83216
O         -1.29518        1.10190       -0.43274
O         -0.74027       -1.30202       -0.40082
H         -2.84942        0.87806       -0.39895
H          0.06924       -1.23329        0.20202
S          2.72232       -1.15807        0.47744
O          1.35783       -0.90678        1.03859
O          3.45135       -2.26312        1.05272
O          2.49035       -1.54908       -1.06313
O          3.47657        0.13781        0.46092
H          1.87030       -0.90556       -1.47453
H          2.68529        1.37955        0.59521
N          2.22519        2.36188        0.70929
C          1.01953        2.25396        1.56508
C          1.96196        2.92342       -0.63735
H          2.92925        2.92468        1.18477
H          0.25027        1.71763        1.00797
H          1.28107        1.69387        2.46265
H          0.66601        3.25602        1.82002
H          1.30370        2.23347       -1.16801
H          1.49416        3.90546       -0.54163
H          2.90990        3.00431       -1.17004
H         -4.99768       -1.19752       -0.12463
H         -3.28645       -1.46336       -0.56047
H         -3.68285       -1.88716        1.88979
H         -2.55206       -0.56656        1.60412
H         -5.32121       -0.30384        2.50856
H         -3.98364        0.45965        3.04814
H         -4.15326        0.63592       -1.42579
H         -4.44464        1.13409        0.16767
C         -3.97045       -0.85619        0.03267
C         -3.60047       -0.86255        1.50891
N         -3.87364        0.55004       -0.45026
N         -4.44171        0.10848        2.21587
