30
2sa1a1eda_13.log	Energy: -1033767.1108071
S         -2.34273       -0.87315       -0.10153
O         -3.07429        0.38440        0.17502
O         -1.39307       -0.77896       -1.23134
O         -1.75833       -1.48615        1.09478
O         -3.45766       -1.89529       -0.68630
H         -4.17998       -1.95375       -0.04631
S          1.06668        1.83121       -0.26185
O          0.71720        0.88092        0.85579
O          0.20106        3.02595       -0.18002
O          2.48860        2.05845       -0.42123
O          0.65039        1.02626       -1.60361
H         -0.23441        0.60776       -1.50968
H          2.35882       -2.60578       -1.31988
H          2.20981       -0.83931       -1.52155
H          4.37880       -1.43029       -0.40991
H          3.34071       -0.45560        0.62708
H          3.87280       -3.31721        0.92259
H          3.82776       -2.15037        2.06658
H          0.17872       -1.78315       -0.57635
H          1.08217       -2.37169        0.72779
C          2.28037       -1.64978       -0.79468
C          3.44471       -1.44196        0.16510
N          1.02411       -1.66070       -0.00432
N          3.39582       -2.46896        1.20807
H          0.89245       -0.72527        0.45982
N         -1.61044        2.13842        1.62119
H         -2.05161        2.67357        2.36192
H         -0.86805        1.52152        1.97289
H         -2.29339        1.52543        1.10945
H         -1.10591        2.73954        0.92786
