33
2sa1ma1eda_116.log	Energy: -1058414.3385301
S          1.19913       -0.20589        0.84385
O          0.34673       -1.43914        0.68901
O          1.34044        0.45290       -0.49099
O          0.72487        0.67867        1.89877
O          2.62871       -0.70809        1.25357
H          3.03814       -1.21997        0.45150
S         -2.63976       -1.44110       -0.26307
O         -3.82242       -2.16226       -0.62963
O         -2.66210        0.02001       -0.33714
O         -2.22875       -1.86294        1.20685
O         -1.42690       -1.96649       -1.13777
H         -1.27791       -1.62280        1.36088
H         -0.57700       -1.75702       -0.65142
N          3.57513       -1.85230       -0.90309
H          3.35844       -2.84120       -0.97982
C          5.00410       -1.59974       -1.12299
H          5.35557       -1.91772       -2.11104
H          5.19307       -0.53026       -1.00928
H          5.58111       -2.12519       -0.35918
H          3.00900       -1.36410       -1.59309
H         -1.94454        3.33864        0.42814
H         -0.77298        2.29395        1.28452
H          0.06300        4.66133        1.14211
H          1.10989        3.51680        0.30062
H         -0.73167        5.40796       -0.96557
H          0.83181        5.09747       -1.32608
H         -1.61344        1.34354       -0.81509
H         -0.83939        2.63639       -1.62517
C         -0.93796        2.91283        0.40196
C          0.12579        3.99451        0.27347
N         -0.84662        2.03682       -0.79497
N         -0.03369        4.67343       -1.01531
H          0.04714        1.48149       -0.76674
