37
2sa1dma1tma_40.log	Energy: -1073003.2396212
S          1.63909       -0.94388        0.20308
O          0.40343       -1.62812       -0.20965
O          2.68409       -1.78716        0.78189
O          2.17911       -0.07832       -0.90188
O          1.25972        0.06889        1.38667
H          0.45285        0.59140        1.13097
S         -2.11180        0.75262        0.08134
O         -3.08615        1.63451       -0.59449
O         -0.88722        1.41816        0.54565
O         -2.76999       -0.06591        1.14092
O         -1.69935       -0.27578       -1.07907
H         -4.33375       -0.28855        0.60623
H         -0.90710       -0.81190       -0.79303
N         -5.10029       -0.09839       -0.09913
C         -6.40653        0.12735        0.54214
C         -5.06934       -1.16131       -1.12790
H         -4.70370        0.77511       -0.50304
H         -6.73292       -0.79300        1.02873
H         -6.30025        0.91677        1.28629
H         -7.13856        0.42461       -0.21064
H         -5.34163       -2.11163       -0.66667
H         -5.77251       -0.91612       -1.92546
H         -4.05349       -1.21764       -1.52273
N          4.61919        0.48561       -0.29314
C          4.62612        0.77793        1.16147
H          3.94989        1.61120        1.35408
H          4.25616       -0.10324        1.68603
H          5.64291        1.02727        1.47656
C          5.39841       -0.73398       -0.60982
H          4.95466       -1.56557       -0.06118
H          5.32162       -0.92810       -1.68030
H          6.44410       -0.58462       -0.32786
C          5.03995        1.65080       -1.09791
H          4.92344        1.41154       -2.15553
H          4.40010        2.49854       -0.85057
H          6.08384        1.89287       -0.88161
H          3.58470        0.26574       -0.56327
