30
2sa1a1eda_10.log	Energy: -1033768.3823170
S          0.05951        2.29145       -0.16312
O         -0.07374        3.72636       -0.28863
O         -0.98806        1.69283       -1.25171
O          1.37976        1.70428       -0.48218
O         -0.42741        1.72490        1.14245
H         -1.97078        1.59330        1.14326
S         -1.48469       -1.78187       -0.06277
O         -0.66851       -2.05399        1.12411
O         -2.83306       -1.23840        0.21033
O         -0.76745       -1.01751       -1.10718
O         -1.73789       -3.25962       -0.67608
H         -0.87977        0.71237       -1.29498
H         -2.37572       -3.18432       -1.39890
H          2.47515       -2.44437       -0.03240
H          1.74667       -1.30309       -1.18280
H          4.25980       -1.28260       -1.37380
H          3.62407        0.27869       -0.83950
H          4.99660       -1.67946        0.84532
H          5.21839       -0.06054        0.74894
H          0.85808       -1.13130        1.09064
H          2.40528       -0.60932        1.58295
C          2.39580       -1.38986       -0.31068
C          3.76587       -0.76455       -0.54191
N          1.74105       -0.66788        0.80636
N          4.52106       -0.79368        0.71239
H          1.52593        0.30274        0.47900
N         -3.00480        1.38262        0.92456
H         -3.25316        1.93030        0.10231
H         -3.61539        1.60857        1.70388
H         -3.05242        0.36415        0.68393
