33
2sa1ma1eda_198.log	Energy: -1058403.5653157
S          2.72907       -0.47963       -0.13137
O          2.78099       -0.45439        1.30543
O          2.00215       -1.55982       -0.79858
O          2.31536        0.88592       -0.74389
O          4.24479       -0.55780       -0.63872
H          4.25657       -0.71859       -1.59313
S         -1.09424        1.81184       -0.41077
O         -2.15893        1.61706        0.56375
O         -1.10062        0.90877       -1.57271
O         -1.32008        3.25881       -1.10156
O          0.25576        1.88732        0.23311
H         -1.46341        3.90870       -0.39982
H          1.43840        1.29492       -0.34815
N         -0.09997       -0.27238        2.44175
H          0.76109       -0.61805        2.85146
C         -1.12984       -0.04312        3.45136
H         -0.83443        0.64952        4.25275
H         -2.01510        0.37023        2.96004
H         -1.41044       -0.99459        3.91570
H          0.13239        0.59781        1.97101
H         -1.32199       -3.13000        0.38614
H         -1.08467       -1.45612        0.96474
H         -3.53821       -2.06631        0.85908
H         -3.14219       -0.74595       -0.23714
H         -3.72863       -3.50630       -1.00042
H         -4.23255       -2.11268       -1.69050
H          0.21868       -1.91760       -1.02941
H         -1.22427       -2.28864       -1.86149
C         -1.51311       -2.07574        0.16358
C         -2.99527       -1.81578       -0.06062
N         -0.79542       -1.75395       -1.10148
N         -3.44482       -2.56268       -1.24047
H         -0.91292       -0.73786       -1.32574
