26
2sa1eda_41.log	Energy: -998253.6050418
S          0.07242        2.16727        0.00110
O         -0.88879        1.53310        0.92342
O          1.49744        1.91381        0.36020
O         -0.21933        1.91309       -1.40772
O         -0.12719        3.74305        0.30204
H          0.57727        4.22926       -0.14830
S          1.99304       -1.49457       -0.11698
O          0.93770       -1.49203       -1.11635
O          2.93146       -2.58238       -0.06857
O          2.78631       -0.16604       -0.10287
O          1.15471       -1.43041        1.27181
H          2.19958        0.68777        0.02336
H          1.76671       -1.36186        2.01899
H         -2.07413       -2.63503       -0.25955
H         -1.45586       -1.75190        1.14913
H         -3.92834       -2.19738        1.37158
H         -3.57753       -0.46798        1.30326
H         -4.71558       -2.06231       -0.86755
H         -5.18637       -0.60102       -0.29966
H         -0.76404       -0.83465       -1.02676
H         -2.38693       -0.41502       -1.29089
C         -2.13585       -1.69676        0.29789
C         -3.56985       -1.39263        0.71737
N         -1.66822       -0.60528       -0.58634
N         -4.38065       -1.18624       -0.48193
H         -1.50429        0.26646       -0.02876
