37
2sa1dma1tma_11.log	Energy: -1073014.9575887
S         -2.59174       -0.47528       -0.16493
O         -2.85390        0.50126       -1.22417
O         -2.65664       -1.88358       -0.55563
O         -1.36858       -0.15126        0.62805
O         -3.75233       -0.24949        0.96788
H         -4.59529       -0.52816        0.58521
S          2.83285        0.03246        0.09420
O          1.50834        0.27636       -0.50372
O          3.38214        1.14480        0.86733
O          2.89904       -1.28232        0.77743
O          3.78234       -0.11685       -1.23280
H          4.70131       -0.14361       -0.93482
N          0.39757       -2.30153        0.25161
C         -0.16829       -3.34002        1.13545
C          0.41135       -2.66661       -1.18404
H         -0.15978       -1.43199        0.36476
H          0.40528       -4.26154        1.02374
H         -0.10901       -2.99098        2.16649
H         -1.21074       -3.50043        0.85780
H          1.02595       -3.55846       -1.31631
H         -0.61485       -2.84663       -1.50550
H          0.84142       -1.82836       -1.73179
H          1.36790       -2.04357        0.53889
N         -0.50627        2.42592        0.10268
C         -0.23023        2.62412       -1.34559
H          0.71884        2.14072       -1.57235
H         -1.03708        2.15020       -1.90593
H         -0.19065        3.69653       -1.54982
C         -1.82093        3.00140        0.48896
H         -2.58888        2.56995       -0.15267
H         -2.02406        2.74241        1.52824
H         -1.77593        4.08612        0.37060
C          0.58765        2.95160        0.95947
H          0.35246        2.72727        2.00048
H          1.52779        2.47129        0.69041
H          0.65090        4.03279        0.81690
H         -0.58293        1.39641        0.25683
