31
2sa1ma1dma_40.log	Energy: -1023686.8538678
S          1.03945       -0.10710        0.78611
O          2.12967       -0.73602        1.55174
O         -0.14938        0.27983        1.58245
O          1.53288        1.04197       -0.03118
O          0.58312       -1.23254       -0.23328
H          3.18577        0.54723       -0.50130
H         -0.32419       -0.99070       -0.63431
S         -2.94784       -0.64636       -0.32295
O         -3.87434       -1.58793       -0.90195
O         -1.67267       -0.42475       -1.08475
O         -3.52797        0.68261        0.03058
O         -2.47699       -1.31502        1.07231
H         -2.43350        1.77044        0.22572
H         -1.71691       -0.81524        1.43279
N         -1.54794        2.36968        0.32848
H         -1.74348        3.17963        0.91138
C         -1.03316        2.74586       -1.00941
H         -0.06083        3.22559       -0.90755
H         -0.93797        1.82530       -1.58375
H         -1.75028        3.41169       -1.48981
H         -0.88102        1.75208        0.82913
N          3.94120       -0.16417       -0.37072
C          5.27108        0.46299       -0.24814
C          3.81835       -1.19450       -1.43004
H          3.61750       -0.57242        0.53180
H          5.52901        0.94727       -1.19091
H          5.23816        1.20348        0.55083
H          6.01166       -0.30220       -0.01231
H          4.01011       -0.73410       -2.39994
H          4.54174       -1.98877       -1.24199
H          2.80340       -1.59377       -1.39657
