21
2sa1ma_03.log	Energy: -938864.0425257
S          2.25003       -0.12790        0.00595
O          1.60709        1.05593       -0.57100
O          3.67260       -0.15070        0.15226
O          1.59528       -0.42086        1.40673
O          1.84197       -1.38177       -0.87486
H          0.59798       -0.34140        1.35148
H          0.86119       -1.46579       -0.93916
S         -1.91376       -0.74771        0.10429
O         -0.95615       -0.07082        1.01220
O         -2.82777       -1.69932        0.69538
O         -2.48946        0.22444       -0.84428
O         -0.88339       -1.67474       -0.83297
H         -1.53158        1.60354       -0.87223
H         -1.27992       -2.55079       -0.93531
N         -0.81131        2.35377       -0.71705
H          0.10134        1.85982       -0.64143
C         -1.10445        3.10066        0.53144
H         -0.31957        3.83556        0.70743
H         -2.07201        3.59231        0.43637
H         -1.13392        2.37539        1.34320
H         -0.77924        2.96384       -1.53124
