31
2sa1ma1dma_92.log	Energy: -1023660.8271909
S         -1.52714       -0.72093        0.27439
O         -0.42496       -1.21036        1.11648
O         -2.04044        0.61768        0.68377
O         -0.96120       -0.54544       -1.20570
O         -2.64445       -1.68148        0.13512
H          0.02573       -0.50533       -1.20073
H         -4.13878       -0.87472        0.29986
S          2.73039       -0.54693       -0.21636
O          3.62203        0.58727       -0.23749
O          1.73932       -0.75414       -1.25571
O          3.64759       -1.86925       -0.28607
O          2.08936       -0.67902        1.20022
H          4.50322       -1.66909        0.11872
H          1.09049       -0.83072        1.15164
N         -4.60930        0.06448        0.35606
H         -5.33781        0.07118        1.06537
C         -5.08459        0.49585       -0.97849
H         -5.47955        1.50940       -0.91720
H         -4.23270        0.47025       -1.65780
H         -5.85489       -0.18968       -1.33001
H         -3.77704        0.62672        0.65824
N          0.70162        1.91878        0.14242
C          1.00515        2.61580       -1.09553
C          1.33735        2.52386        1.30106
H         -0.30245        1.87867        0.28745
H          2.07688        2.52953       -1.30214
H          0.46562        2.14708       -1.92362
H          0.74743        3.69021       -1.07121
H          2.42356        2.42611        1.20719
H          1.09801        3.59557        1.42358
H          1.02865        1.99263        2.20544
