36
2sa1dma1eda_14.log	Energy: -1083092.7967529
S          1.44199       -2.00493       -0.36234
O          0.80829       -2.60719        0.82723
O          0.43416       -1.40427       -1.26705
O          2.59288       -1.13911       -0.07880
O          2.12672       -3.21906       -1.18564
H          1.43840       -3.85561       -1.42166
S         -0.81378        1.86256       -0.60849
O         -0.42536        1.22361        0.71735
O         -2.11744        1.35420       -1.03709
O         -0.59028        3.29484       -0.61673
O          0.30232        1.29010       -1.63185
H          0.30723        0.30278       -1.61262
N          2.28065        1.42141        0.83808
C          2.76190        2.58582        0.06068
C          2.82887        1.31925        2.20533
H          1.23038        1.43816        0.88135
H          3.84748        2.52831       -0.03390
H          2.28748        2.55782       -0.91945
H          2.47171        3.50199        0.57580
H          3.91586        1.24227        2.15392
H          2.54260        2.20427        2.77545
H          2.42354        0.42290        2.67477
H          2.48550        0.53199        0.33928
H         -3.17776       -2.33248        1.68083
H         -2.58692       -0.94474        2.63038
H         -4.85881       -0.54531        1.52593
H         -3.62624        0.63599        1.06721
H         -4.99395       -1.07260       -0.67533
H         -3.76036       -0.02773       -1.03439
H         -0.90174       -1.92568        0.99478
H         -1.94081       -1.39466       -0.19705
C         -2.84882       -1.29176        1.62851
C         -3.92194       -0.41443        0.97580
N         -1.64290       -1.23969        0.77479
N         -4.05686       -0.78668       -0.42886
H         -1.19166       -0.29333        0.79870
