28
2sa1a1dma_67.log	Energy: -999010.7362490
S         -0.60816       -1.05679       -0.25404
O         -0.09909        0.08547       -1.06083
O         -1.88484       -1.58255       -0.74991
O          0.42526       -2.25518       -0.44471
O         -0.64431       -0.72261        1.19172
H          1.33428       -1.92292       -0.27191
H         -2.29294       -0.81750        1.71524
S          3.17965        0.39843        0.00667
O          4.49664        0.87801       -0.32113
O          2.85844       -1.01495       -0.05986
O          2.86210        0.80054        1.53531
O          2.14360        1.22832       -0.80906
H          3.28774        1.64890        1.72406
H          1.23153        0.75940       -0.87319
N         -3.87950        1.40602        0.18159
C         -4.10730        0.96973       -1.20435
C         -2.66012        2.21768        0.31260
H         -4.67476        1.95926        0.48853
H         -3.31090        0.27859       -1.49382
H         -5.06383        0.44415       -1.26810
H         -4.11907        1.81203       -1.90824
H         -1.79946        1.63359       -0.02228
H         -2.70754        3.13474       -0.28915
H         -2.50910        2.48637        1.36107
N         -3.31342       -0.91392        1.50040
H         -3.32276       -1.61206        0.74911
H         -3.64495        0.03006        1.06668
H         -3.85956       -1.20653        2.30414
