39
2sa1eda1tma_82.log	Energy: -1107744.2370096
S         -1.21917       -1.87523       -0.63721
O         -0.51586       -1.82645        0.67680
O         -1.08468       -0.38444       -1.26045
O         -0.65810       -2.82999       -1.57554
O         -2.69018       -1.92454       -0.43482
H         -3.01086       -0.47193        0.20402
S          1.26077        2.02561       -0.36207
O          1.18190        1.50428        1.01906
O          2.26804        3.04223       -0.61901
O          1.23479        0.92188       -1.35433
O         -0.19473        2.78339       -0.52285
H         -0.15411       -0.05107       -1.33593
H         -0.06857        3.48979       -1.17016
H          2.95728       -2.52881       -0.24411
H          2.43093       -1.02319       -1.03660
H          4.91845       -1.04747       -0.75281
H          4.16274        0.26258        0.15501
H          5.24262       -2.20744        1.28933
H          5.46111       -0.66390        1.78252
H          1.08013       -1.59142        0.92231
H          2.51709       -1.42044        1.86621
C          2.89856       -1.44159       -0.14561
C          4.26865       -0.82591        0.10303
N          2.02509       -1.14030        1.01451
N          4.78629       -1.30673        1.38654
H          1.81568       -0.11951        1.07461
N         -3.28281        0.43512        0.68736
C         -3.39530        1.48949       -0.35075
H         -2.41107        1.64196       -0.79110
H         -4.09715        1.15289       -1.11431
H         -3.75289        2.40984        0.11739
C         -4.58223        0.15590        1.33939
H         -5.30250       -0.14222        0.57702
H         -4.45039       -0.66108        2.04914
H         -4.93076        1.05238        1.85712
C         -2.22259        0.75758        1.67894
H         -2.11079       -0.08987        2.35475
H         -1.28104        0.92516        1.15763
H         -2.51349        1.65722        2.22652
