39
2sa1eda1tma_41.log	Energy: -1107746.6501475
S         -2.39217        1.49355       -0.10948
O         -1.59108        2.66637       -0.51591
O         -3.01148        0.76409       -1.22001
O         -1.68633        0.63219        0.86174
O         -3.61932        2.08453        0.79248
H         -4.12728        2.69285        0.23895
S          2.17887       -1.49904        0.01163
O          3.30797       -0.61961        0.32983
O          2.21996       -2.83774        0.59520
O          0.85735       -0.83447        0.14175
O          2.23009       -1.71813       -1.62426
H          3.01099       -2.25182       -1.82279
H          2.31267        1.22129       -1.20372
H          1.51020        2.75248       -1.60170
H          3.99343        2.89641       -0.89546
H          2.89828        3.98146       -0.02603
H          3.75052        1.37011        1.03139
H          4.15640        2.86325        1.62654
H          0.76224        0.87020        0.27823
H          1.39432        2.12598        1.15794
C          1.97946        2.17862       -0.80163
C          3.16092        2.92860       -0.17957
N          0.96613        1.89318        0.25079
N          3.45183        2.34056        1.12230
H          0.06681        2.38334        0.09653
N         -1.80394       -2.05292        0.19949
C         -1.12762       -3.06810        1.04716
H         -0.05751       -3.06513        0.84050
H         -1.29808       -2.81367        2.09374
H         -1.56072       -4.04653        0.82708
C         -3.26439       -2.00126        0.47014
H         -3.41590       -1.75690        1.52144
H         -3.70251       -1.22241       -0.15401
H         -3.69912       -2.97644        0.24055
C         -1.53104       -2.25504       -1.24887
H         -2.00068       -1.43433       -1.79284
H         -0.45333       -2.23627       -1.40235
H         -1.95355       -3.21544       -1.55263
H         -1.43388       -1.11092        0.44623
