18
2sa1a_01.log	Energy: -914204.4524208
S         -1.81878       -0.33570       -0.04769
O         -2.32890        0.79885       -0.83100
O         -1.05847       -1.35081       -0.79531
O         -1.08832        0.13005        1.16383
O         -3.15653       -1.07016        0.45686
H         -2.93477       -1.97458        0.72008
S          2.10611       -0.12911       -0.02261
O          3.52962       -0.22013        0.08693
O          1.50638        1.10768       -0.54291
O          1.60615       -1.32617       -0.91222
O          1.47819       -0.40710        1.39882
H          0.61052       -1.34236       -0.96653
H          0.48898       -0.25328        1.38311
N         -0.60598        2.71285       -0.02022
H         -0.77262        2.78505        0.98195
H         -0.54720        3.63372       -0.44652
H          0.27623        2.16858       -0.17319
H         -1.38155        2.13230       -0.43254
