36
2sa1dma1eda_71.log	Energy: -1083092.6913439
S          0.50487       -1.71873       -0.88592
O         -0.91467       -1.45800       -1.29618
O          0.63545       -1.45455        0.58149
O          1.05872       -2.97714       -1.32454
O          1.37099       -0.57958       -1.61953
H          0.94851        0.31061       -1.47913
S         -1.07695        1.96201       -0.41543
O          0.30111        1.77336       -0.95617
O         -1.15379        1.36762        0.96099
O         -1.62021        3.29448       -0.52207
O         -2.02265        1.02771       -1.33606
H         -1.56888        0.16732       -1.50624
N         -2.41881       -1.03767        0.97870
C         -2.14995       -1.92429        2.12909
C         -3.85108       -0.80357        0.69348
H         -1.94452       -0.10997        1.10915
H         -2.63142       -2.88895        1.96053
H         -1.07108       -2.05932        2.20420
H         -2.54906       -1.46656        3.03571
H         -4.33145       -1.75223        0.44971
H         -4.32175       -0.36178        1.57290
H         -3.92091       -0.11348       -0.14743
H         -1.94259       -1.41038        0.12998
H          3.37412        1.63713        2.27034
H          2.81997        0.04490        2.85322
H          4.79335       -0.15668        1.29058
H          3.35807       -0.98421        0.68502
H          4.65194        1.27020       -0.50640
H          3.47308        0.29031       -1.12832
H          0.94889        1.45615        1.98209
H          1.69146        1.46863        0.50758
C          2.93813        0.68045        1.97266
C          3.78534        0.00199        0.89195
N          1.60245        0.94142        1.39228
N          3.76919        0.81705       -0.31523
H          1.13153        0.04151        1.12134
