37
2sa1dma1tma_37.log	Energy: -1073005.9054697
S          0.96802       -0.53465       -0.63643
O          1.86895        0.51762       -1.13024
O          0.28036       -0.05633        0.63096
O         -0.02897       -0.99759       -1.61799
O          1.81099       -1.78624       -0.23526
H          2.74508       -1.50482        0.19242
S         -2.92089       -1.04159        0.28123
O         -2.80932        0.37143       -0.07504
O         -4.18553       -1.57857        0.69562
O         -2.40377       -1.90756       -0.92962
O         -1.87236       -1.33040        1.43296
H         -1.50871       -1.58149       -1.24186
H         -1.00058       -0.89334        1.20163
N          4.06890       -1.06990        0.74286
C          3.82714        0.04093        1.66966
C          4.91469       -0.69087       -0.39582
H          4.49753       -1.84237        1.24512
H          3.30443        0.83136        1.12534
H          3.18265       -0.29892        2.48297
H          4.75921        0.44618        2.08486
H          4.37011        0.04091       -0.99708
H          5.87302       -0.26276       -0.07402
H          5.10201       -1.57139       -1.01357
N         -0.60011        2.46751        0.02447
C         -1.68971        3.02284        0.86588
H         -2.59737        2.45243        0.67614
H         -1.40722        2.92145        1.91442
H         -1.82584        4.07744        0.61616
C          0.69325        3.15578        0.26770
H          0.92792        3.08817        1.33063
H          1.46270        2.64554       -0.31279
H          0.59978        4.20225       -0.03048
C         -0.95462        2.46751       -1.42232
H         -0.12788        2.02051       -1.97515
H         -1.85316        1.86543       -1.54924
H         -1.12018        3.49906       -1.74124
H         -0.44632        1.46497        0.29616
