30
2sa1a1eda_111.log	Energy: -1033760.1800843
S         -0.45706        2.00161       -0.05691
O         -1.74165        1.74992        0.62300
O          0.72101        2.10958        0.79166
O         -0.25069        1.05228       -1.19785
O         -0.60100        3.46539       -0.72364
H         -1.48986        3.54872       -1.09580
S         -2.05795       -1.61027       -0.10489
O         -2.77900       -2.84186       -0.24043
O         -0.70956       -1.60059        0.45657
O         -1.98871       -0.92486       -1.53283
O         -2.95830       -0.62233        0.73991
H         -1.36804       -0.14480       -1.49708
H         -2.52839        0.27456        0.78378
H          3.13468        0.43724       -1.54145
H          3.01526        1.15671        0.07335
H          5.22197       -0.01585       -0.23518
H          4.25995       -0.77731        1.03549
H          4.63609       -1.83357       -1.66855
H          4.82707       -2.59498       -0.23337
H          1.04831       -0.14253       -0.64742
H          2.00609       -1.52755       -0.54330
C          3.09899        0.21482       -0.47125
C          4.31309       -0.60113       -0.04376
N          1.87614       -0.57106       -0.20319
N          4.27953       -1.89666       -0.72093
H          1.67448       -0.60161        0.84221
N          1.13630       -0.37998        2.47284
H          1.57580       -0.62446        3.35317
H          0.25214       -0.88027        2.40338
H          0.92158        0.61576        2.47742
