34
2sa1ma1tma_03.log	Energy: -1048356.1714426
S          0.69752        1.88437       -0.30373
O          0.62778        0.83336        0.76249
O          0.44485        1.09770       -1.68260
O         -0.43172        2.82920       -0.12486
O          2.01493        2.47814       -0.47105
H         -1.53997        2.03117        0.78286
H          1.70350       -0.39560        0.54935
S         -1.49472       -1.57006       -0.19753
O         -2.04082       -1.22424        1.13563
O         -0.16218       -2.15896       -0.20409
O         -2.42660       -2.78600       -0.74692
O         -1.69279       -0.45225       -1.15501
H         -3.34362       -2.48242       -0.76226
H         -0.35832        0.52519       -1.58296
N         -2.31140        1.51025        1.28269
H         -2.05729        0.49570        1.31396
C         -3.58336        1.67869        0.54573
H         -4.38657        1.16596        1.07520
H         -3.80795        2.74047        0.44619
H         -3.44462        1.23255       -0.43882
H         -2.36673        1.86088        2.23589
N          2.60134       -0.93603        0.40792
C          2.54561       -2.17413        1.22132
H          2.40977       -1.89875        2.26782
H          1.69512       -2.76707        0.88828
H          3.48375       -2.72050        1.09774
C          2.70454       -1.22944       -1.04625
H          1.84350       -1.83260       -1.33156
H          2.68257       -0.28468       -1.58977
H          3.64124       -1.76062       -1.23159
C          3.68399       -0.02268        0.85537
H          3.60209        0.91153        0.29723
H          3.54692        0.18363        1.91713
H          4.65007       -0.50355        0.68549
