25
2sa1a1ma_42.log	Energy: -974361.9122988
S         -1.37253       -1.29338       -0.09100
O         -2.68064       -1.81924       -0.42386
O         -0.93484       -0.15701       -0.94641
O         -1.53980       -0.51780        1.36420
O         -0.30701       -2.28499        0.14405
H         -1.46707       -1.18160        2.06277
H          1.30214       -1.89065        0.23591
S          2.29917       -0.00833        0.01817
O          3.67355        0.38609       -0.07999
O          2.24929       -1.56899        0.20981
O          1.43689        0.61309        1.02615
O          1.62139        0.22627       -1.39528
H         -0.26365        1.36755        0.86576
H          0.63942        0.04099       -1.32542
N         -0.81439        2.23173        0.73162
H         -1.79483        1.97217        0.40477
C         -0.14279        3.08519       -0.27376
H         -0.69408        4.01857       -0.38840
H          0.88136        3.28026        0.04200
H         -0.12936        2.54266       -1.21815
H         -0.87425        2.69345        1.63678
N         -3.31787        1.53758       -0.32907
H         -3.71808        0.78811        0.23084
H         -3.01065        1.09380       -1.19244
H         -4.06535        2.18628       -0.55390
