30
2sa1a1eda_120.log	Energy: -1033758.0557075
S         -1.69032       -1.77995       -0.31549
O         -2.38479       -2.82013       -1.03037
O         -0.65811       -1.02490       -1.11533
O         -2.55087       -0.79454        0.39284
O         -0.83740       -2.53985        0.82777
H         -1.78927        0.54448        0.83168
H         -0.25318       -1.89941        1.27661
S          2.08231       -0.27681        0.52212
O          3.43515       -0.53677        0.95345
O          0.98229       -0.37844        1.49003
O          1.97479        1.19889       -0.03422
O          1.78056       -1.18316       -0.70198
H          2.83473        1.40486       -0.58154
H          0.75427       -1.18224       -0.92480
H         -0.33884        2.85539       -0.33569
H         -0.83920        1.33738       -1.12466
H         -2.46238        3.20278       -1.63479
H         -3.21522        1.87607       -0.74383
H         -2.48993        4.48584        0.35979
H         -3.87753        3.63843        0.53674
H         -0.26883        1.08256        1.26261
H         -1.61936        2.06003        1.59912
C         -1.11643        2.08952       -0.38509
C         -2.48822        2.69023       -0.66526
N         -1.18527        1.41274        0.93425
N         -2.87192        3.55126        0.45622
N          4.23886        1.48003       -1.30995
H          4.67263        2.39352       -1.39489
H          4.21312        1.05454       -2.23200
H          4.83033        0.89855       -0.71963
