24
2sa1dma_42.log	Energy: -963491.2448465
S          1.23857       -1.57654       -0.13732
O          2.62891       -1.90642       -0.25526
O          0.53429       -0.88628       -1.20415
O          0.38014       -2.91424        0.07938
O          1.04893       -0.80398        1.21723
H          0.88033       -3.53240        0.63330
H          0.14692       -0.38793        1.26334
S         -2.35583        0.47868        0.13489
O         -3.37621        1.48072        0.23136
O         -1.36860        0.30351        1.18642
O         -3.02605       -0.97222       -0.00044
O         -1.63243        0.67161       -1.24713
H         -3.82810       -0.90903       -0.54064
H         -0.81741        0.10518       -1.29594
N          2.50273        2.95329        0.01532
C          1.13526        2.59975       -0.32143
C          3.30983        1.79803        0.37224
H          2.93078        3.44531       -0.76054
H          0.63450        2.20528        0.56995
H          0.58648        3.48925       -0.64156
H          1.05989        1.83736       -1.11737
H          2.91475        1.34962        1.28960
H          3.32799        1.01060       -0.40189
H          4.33850        2.11129        0.56931
