26
2sa1eda_100.log	Energy: -998248.7988463
S         -1.96408       -0.98816        0.04185
O         -1.44033       -0.45464        1.28900
O         -2.53117       -0.05526       -0.91222
O         -0.95248       -1.94818       -0.63381
O         -3.08719       -2.03317        0.48390
H         -0.03425       -1.49108       -0.82833
H         -3.58760       -2.31370       -0.29635
S          2.23839       -0.50970       -0.10805
O          1.18175       -0.75626       -1.12383
O          2.55106        0.93332        0.02932
O          1.99814       -1.16097        1.17609
O          3.52641       -1.18797       -0.80692
H         -0.01102        0.66440        1.59410
H          4.28737       -1.07495       -0.22071
H         -0.22820        1.33489       -0.87976
H          0.60171        2.87726       -0.94717
H         -0.23343        3.57387        1.20030
H         -1.49886        2.32694        1.19555
H          1.35136        1.50766        1.12381
H          0.57216        1.86136        2.58074
H         -1.24359        3.29995       -2.21535
H         -2.24912        2.40724       -1.28860
C         -0.32666        2.39801       -0.62452
C         -0.47665        2.55671        0.88895
N         -1.46232        3.04963       -1.25873
N          0.42446        1.60305        1.60758
