37
2sa1dma1tma_24.log	Energy: -1073010.6847951
S         -2.86201       -0.45051       -0.19393
O         -3.16413        0.99805       -0.10027
O         -3.95907       -1.28105       -0.65345
O         -1.54074       -0.67646       -0.81796
O         -2.55247       -0.92475        1.36084
H         -3.40430       -1.06183        1.79652
S          2.83456        0.26008        0.04979
O          2.35299       -0.11198       -1.28957
O          2.84504        1.70245        0.31262
O          2.19734       -0.55649        1.11419
O          4.39179       -0.22582        0.14616
H          4.92829        0.41784       -0.33502
N          0.47852       -2.33208        0.00384
C         -0.06749       -3.21271        1.05641
C          1.12471       -3.04437       -1.11959
H         -0.29160       -1.73383       -0.36042
H          0.75037       -3.76810        1.51781
H         -0.57023       -2.59260        1.79804
H         -0.78860       -3.90205        0.61396
H          1.93363       -3.66380       -0.72851
H          0.38411       -3.66792       -1.62308
H          1.53337       -2.29670       -1.79883
H          1.17302       -1.66893        0.43432
N         -0.84701        2.40130       -0.02937
C         -0.01471        2.17094       -1.24198
H          0.10759        1.09862       -1.38267
H         -0.53126        2.60216       -2.10031
H          0.96414        2.62922       -1.09417
C         -1.15244        3.83705        0.16341
H         -1.64245        4.22048       -0.73195
H         -1.81913        3.94629        1.01937
H         -0.22034        4.37710        0.34056
C         -0.22973        1.80940        1.18906
H         -0.90860        1.96546        2.02784
H         -0.09230        0.74236        1.02416
H          0.74422        2.26891        1.36137
H         -1.75941        1.89607       -0.15852
