25
2sa1a1ma_62.log	Energy: -974352.1977808
S         -0.96951       -0.89866       -0.31642
O         -0.46089        0.49091       -0.56391
O         -2.27993       -1.11966       -0.92896
O          0.02320       -1.88694       -1.06838
O         -0.93523       -1.22132        1.12805
H          0.94502       -1.71385       -0.77129
H         -2.58490       -0.92477        1.68688
S          2.95109        0.29452        0.03795
O          4.27326        0.74859       -0.30333
O          2.51747       -1.05600       -0.26706
O          2.77090        0.41308        1.63571
O          1.92542        1.32814       -0.51972
H          3.29419        1.16539        1.94703
H          0.96669        0.96125       -0.51864
N         -3.02357        1.81751        0.36982
H         -3.11364        2.69401        0.87504
C         -3.75123        1.87674       -0.91012
H         -3.42397        2.70532       -1.54637
H         -3.57479        0.93980       -1.44260
H         -4.82260        1.98418       -0.71932
H         -2.02883        1.68026        0.17097
N         -3.55423       -0.57749        1.50821
H         -4.15785       -0.66234        2.31989
H         -3.89341       -1.13639        0.72388
H         -3.43304        0.45826        1.14545
