39
2sa1eda1tma_122.log	Energy: -1107726.7060266
S          3.13037        0.74670        0.31966
O          2.11242        0.46651        1.31875
O          4.32018        1.47712        0.67066
O          3.55245       -0.54698       -0.42429
O          2.33263        1.59299       -0.80335
H          2.81127       -1.27635       -0.45465
H          2.97520        1.93818       -1.43946
S          0.38232       -2.00582       -0.28221
O          1.81493       -2.36013       -0.43659
O         -0.56666       -3.09496       -0.42979
O          0.20519       -1.54116        1.26056
O          0.05069       -0.80002       -1.09237
H          0.86764       -0.84058        1.44132
H         -1.55417       -0.58733       -1.20239
H         -4.43477       -1.24508       -0.81038
H         -3.04042       -2.35653       -0.91409
H         -3.66450       -2.24834        1.38992
H         -2.15152       -1.36891        1.21982
H         -4.79905       -0.15292        1.55033
H         -3.45932        0.06446        2.45130
H         -2.85960       -0.20994       -2.17190
H         -2.59662        0.62896       -0.72378
C         -3.38568       -1.39194       -0.53622
C         -3.21651       -1.33586        0.97355
N         -2.58104       -0.33227       -1.20101
N         -3.78626       -0.09786        1.50532
N         -1.96144        2.19208       -0.28086
C         -1.27131        2.70718       -1.46143
H         -0.51965        1.98205       -1.78665
H         -1.99193        2.86915       -2.27009
H         -0.76135        3.66257       -1.25722
C         -2.99807        3.10735        0.18054
H         -3.71859        3.28953       -0.62293
H         -3.52450        2.64947        1.02107
H         -2.57862        4.07645        0.49851
C         -0.99857        1.90133        0.78317
H         -1.52316        1.45424        1.63063
H         -0.25066        1.19562        0.41715
H         -0.48122        2.81214        1.12374
