36
2sa1dma1eda_102.log	Energy: -1083081.7418182
S         -0.91107       -0.38721        0.11358
O         -1.92655        0.71385       -0.00027
O         -0.11721       -0.46582       -1.15905
O          0.05145       -0.04310        1.24000
O         -1.58667       -1.68713        0.41040
H         -3.19349       -1.51157        0.23690
S          3.02696       -1.30350       -0.02824
O          4.17746       -2.16058        0.01191
O          3.23741        0.13451       -0.24520
O          2.04692       -1.83868       -1.12698
O          2.24061       -1.48925        1.32925
H          1.17992       -1.29949       -1.17055
H          1.37276       -0.97564        1.33829
N         -4.03946       -0.91636       -0.00381
C         -5.03224       -0.91490        1.08340
C         -4.55267       -1.28976       -1.33483
H         -3.52599       -0.00571       -0.05569
H         -5.46384       -1.91205        1.18416
H         -4.52937       -0.63963        2.01062
H         -5.82085       -0.19346        0.86159
H         -4.97326       -2.29558       -1.29160
H         -5.32088       -0.57980       -1.64636
H         -3.72113       -1.27012       -2.03992
H          1.67998        3.17807       -1.38325
H          0.55219        1.79581       -1.45156
H         -0.68656        3.99226       -1.40006
H         -1.04611        2.96381       -0.01023
H          0.64010        5.36492        0.00535
H         -0.53682        4.92685        1.05275
H          2.32622        1.54568        0.21576
H          1.63593        2.88612        1.04311
C          0.88808        2.64331       -0.85106
C         -0.26406        3.56770       -0.48054
N          1.47328        2.10440        0.40279
N          0.21418        4.57237        0.47355
H          0.81904        1.40954        0.84534
