21
2sa1ma_27.log	Energy: -938831.0441559
S          3.02250       -0.31165        0.05280
O          2.21975        0.09558        1.19338
O          4.34814       -0.82909        0.22227
O          2.21981       -1.34315       -0.82158
O          3.06145        0.99986       -0.86955
H          1.25632       -1.10645       -0.84140
H          3.72815        0.88836       -1.56400
S         -1.04379        0.41365        0.08599
O         -0.34280       -0.56886       -0.71941
O         -2.46508        0.34620        0.27315
O         -0.38884        0.50658        1.51036
O         -0.65877        1.81268       -0.59386
H          0.59638        0.38120        1.45147
H         -1.23309        2.51183       -0.24637
N         -5.25085       -1.31536        0.16348
H         -5.69792       -1.49366        1.05564
C         -5.85832       -0.16876       -0.50213
H         -5.79533        0.77945        0.05495
H         -5.37267       -0.01957       -1.47067
H         -6.91455       -0.37753       -0.69695
H         -4.27007       -1.13391        0.34703
