36
2sa1dma1eda_61.log	Energy: -1083090.1572096
S          1.29269       -1.90000       -0.50541
O          1.87496       -0.67553       -1.12865
O          1.25188       -1.81370        0.96272
O          0.04104       -2.31507       -1.13887
O          2.38119       -3.07399       -0.77226
H          2.37915       -3.27774       -1.71776
S         -0.82969        1.89674       -0.58729
O         -0.37806        1.24656        0.71265
O         -1.97226        1.15679       -1.12506
O         -0.92300        3.33836       -0.49576
O          0.43163        1.65584       -1.58143
H          2.42010        0.50721        0.10565
H          0.68832        0.70923       -1.61053
N          2.32020        1.21492        0.85959
C          2.84730        2.52205        0.40837
C          2.91351        0.69988        2.11108
H          1.27455        1.28288        0.95156
H          3.92103        2.43629        0.23426
H          2.32993        2.79676       -0.51078
H          2.65099        3.26922        1.17843
H          3.99276        0.60071        1.98360
H          2.69897        1.39878        2.92098
H          2.47340       -0.27653        2.31282
H         -3.12678       -2.23834        1.89192
H         -2.65217       -0.72320        2.70649
H         -4.84217       -0.55866        1.41131
H         -3.62662        0.61721        0.89926
H         -4.82245       -1.28693       -0.73229
H         -3.53192       -0.32227       -1.10622
H         -0.80961       -1.78286        1.37781
H         -1.72964       -1.55590        0.02637
C         -2.82660       -1.19909        1.73874
C         -3.87480       -0.44983        0.91142
N         -1.55663       -1.20581        0.97973
N         -3.90086       -0.99403       -0.44033
H         -1.15033       -0.24146        0.88314
