30
2sa1a1eda_81.log	Energy: -1033766.3588876
S         -2.21978       -1.19433        0.04747
O         -3.04934       -0.45820       -0.94792
O         -1.84463       -0.24137        1.14407
O         -2.72640       -2.47489        0.47931
O         -0.82803       -1.52867       -0.70912
H         -0.40261       -0.67698       -0.98485
S          0.69703        1.68206        0.02518
O         -0.26904        2.79393        0.04643
O          0.47355        0.74859       -1.11000
O          2.11372        2.09653        0.10339
O          0.49226        0.83301        1.36247
H         -0.41253        0.38613        1.34760
H          4.59417       -1.59047        0.10630
H          4.06611       -0.30814        1.22819
H          2.76942       -2.49543        1.50541
H          1.74531       -1.10577        1.12488
H          2.39574       -3.29554       -0.67341
H          1.00101       -2.42934       -0.51708
H          4.22795        0.15637       -1.34442
H          2.74649       -0.64219       -1.32876
C          3.76191       -0.94343        0.39506
C          2.51316       -1.77199        0.72309
N          3.42217       -0.08155       -0.77203
N          2.01695       -2.37010       -0.51083
H          2.94590        0.81568       -0.46450
N         -2.90704        2.07049       -0.17236
H         -1.90591        2.38248       -0.16958
H         -3.49537        2.74553       -0.65224
H         -2.98400        1.09695       -0.60940
H         -3.19932        1.96607        0.79794
