36
2sa1dma1eda_172.log	Energy: -1083072.8167196
S          0.51328        1.99117        0.12770
O         -0.44718        1.52047        1.16758
O          1.90335        1.79352        0.55439
O          0.18445        1.49188       -1.21126
O          0.28248        3.58758       -0.00691
H          0.59165        4.01099        0.80600
S         -2.87201       -0.68646       -0.08422
O         -1.94015       -1.65617        0.46112
O         -4.26579       -1.00222       -0.23244
O         -2.77410        0.68681        0.64375
O         -2.22245       -0.36741       -1.53508
H         -1.81224        1.00080        0.83164
H         -2.62245        0.42545       -1.92065
N          1.75136       -1.08139        1.62712
C          2.90136       -1.97006        1.78790
C          0.73189       -1.26019        2.66313
H          2.06242       -0.11054        1.62644
H          2.56745       -3.00979        1.70024
H          3.61997       -1.76327        0.99150
H          3.38735       -1.85180        2.76677
H          0.27511       -2.24894        2.55812
H          1.15313       -1.17485        3.67460
H         -0.04404       -0.50496        2.53242
H          2.05328       -2.72114       -1.43472
H          0.92544       -2.19703       -2.71099
H          3.15231       -1.26144       -3.08146
H          1.97692        0.02482       -2.78704
H          4.26007       -0.02098       -1.55383
H          2.94495        0.40849       -0.69666
H         -0.20520       -1.91239       -0.65714
H          1.11285       -1.22314        0.16086
C          1.52811       -1.86330       -1.86171
C          2.52576       -0.80134       -2.31136
N          0.61756       -1.32809       -0.82142
N          3.37265       -0.36395       -1.20612
H          0.26203       -0.39797       -1.09572
