30
2sa1a1eda_108.log	Energy: -1033759.0074322
S         -0.32664        1.98258        0.26872
O         -1.46471        1.69466        1.16255
O          1.00281        1.80463        0.85893
O         -0.46738        1.30124       -1.04437
O         -0.38367        3.56835       -0.02475
H         -1.29671        3.81060       -0.23295
S         -2.37867       -1.42871       -0.11555
O         -3.31443       -2.48845       -0.34770
O         -1.01211       -1.75539        0.29357
O         -2.30173       -0.54892       -1.42572
O         -3.00311       -0.45987        0.96024
H         -1.61676        0.17457       -1.32615
H         -2.41756        0.33431        1.11083
H          2.20365       -1.80637       -1.45262
H          1.13383       -0.39632       -1.62698
H          3.25799        0.33050       -2.39757
H          2.98700        1.08586       -0.82931
H          4.80817       -1.13586       -1.39047
H          5.13892        0.29718       -0.69604
H          0.70279       -1.32392        0.42501
H          2.33891       -1.38928        0.91794
C          2.00222       -0.79183       -1.09759
C          3.19205        0.12939       -1.31988
N          1.62836       -0.87534        0.33846
N          4.43268       -0.42793       -0.76570
H          1.51180        0.08555        0.70962
N          3.74989       -2.05936        1.80581
H          3.89199       -1.70786        2.74693
H          4.39707       -1.58548        1.17384
H          3.95625       -3.05233        1.81007
