33
2sa1ma1eda_145.log	Energy: -1058410.6462832
S         -0.50569        2.19575       -0.18231
O          0.78216        2.62874        0.36436
O         -0.45262        1.44104       -1.43792
O         -1.33333        1.51243        0.85971
O         -1.32782        3.53105       -0.59054
H         -1.31736        4.13739        0.16260
S         -2.05256       -1.75074       -0.00085
O         -3.02312       -2.80088       -0.15274
O         -0.90219       -1.91517        0.86434
O         -1.36797       -1.43953       -1.44246
O         -2.82110       -0.43031        0.29794
H         -2.01633       -1.03837       -2.03911
H         -2.20018        0.37059        0.51086
N          1.16047       -0.01684        2.01621
H          1.07470        0.99720        2.03627
C          2.14073       -0.50120        2.98732
H          1.87538       -0.28044        4.02825
H          2.24856       -1.58454        2.88432
H          3.11252       -0.04211        2.78321
H          0.23547       -0.39515        2.20516
H          2.56394        0.27832       -2.19441
H          2.56838        1.16654       -0.66103
H          4.74092       -0.04594       -0.99167
H          3.86903       -0.67137        0.41101
H          4.04383       -1.99562       -2.19449
H          4.37585       -2.60330       -0.71254
H          0.55620       -0.17956       -1.09267
H          1.49983       -1.55830       -0.88781
C          2.60794        0.17025       -1.10718
C          3.84803       -0.60525       -0.68207
N          1.40638       -0.56609       -0.65911
N          3.77391       -1.96418       -1.21709
H          1.30374       -0.44743        0.41251
