28
2sa1a1dma_62.log	Energy: -999017.3682020
S          0.53522       -1.09809       -0.27183
O          1.81298       -1.60222       -0.76936
O         -0.66009       -1.69080       -0.91411
O          0.43147       -0.99735        1.18803
O          0.56357        0.46618       -0.81442
H          2.32988       -1.04114        1.95988
H         -0.31898        0.87301       -0.65667
S         -3.13703        0.53692        0.02137
O         -4.47426        1.01024       -0.21838
O         -1.98881        1.32716       -0.39299
O         -2.92135        0.36396        1.60745
O         -3.03314       -0.91614       -0.52330
H         -3.70203       -0.06503        1.98637
H         -2.06009       -1.23715       -0.63355
N          3.20649        1.03886       -0.11178
C          4.00913        0.64215       -1.28890
C          3.54468        2.35960        0.45021
H          2.20375        1.00954       -0.37496
H          5.05682        0.55523       -0.99497
H          3.62803       -0.31777       -1.63836
H          3.90527        1.39493       -2.07224
H          4.58531        2.35529        0.77937
H          3.40301        3.13200       -0.30772
H          2.89274        2.55803        1.30151
N          3.33720       -0.96154        1.79201
H          3.59251       -1.80922        1.29222
H          3.82140       -0.95869        2.68342
H          3.31961        0.28977        0.65013
