36
2sa1dma1eda_110.log	Energy: -1083083.6293729
S          0.85158       -1.67442        0.04843
O          0.10847       -2.79663       -0.54887
O          1.24973       -0.66034       -1.03636
O         -0.09285       -0.92395        0.99711
O          2.08347       -2.06951        0.77704
H          3.30600       -0.82139        0.60917
S         -0.55490        2.12500       -0.02382
O         -0.57931        3.55935        0.07206
O         -1.80930        1.39231       -0.19030
O          0.40837        1.74196       -1.21517
O          0.18493        1.54538        1.24137
H          0.63385        0.74897       -1.19221
H          0.10114        0.50940        1.23131
N          3.62955       -0.03719       -0.00367
C          4.92459       -0.36351       -0.62799
C          3.57471        1.25744        0.70931
H          2.84696       -0.08699       -0.69750
H          5.69879       -0.39875        0.13991
H          4.83972       -1.33660       -1.11179
H          5.17325        0.39910       -1.36744
H          4.29431        1.24879        1.52927
H          3.81343        2.06010        0.01015
H          2.56372        1.40364        1.09312
H         -4.19827       -2.47008       -0.19813
H         -3.29606       -2.25002        1.32544
H         -5.25854       -0.63341        1.07445
H         -3.70138        0.18101        1.25610
H         -5.42455        0.35377       -0.96841
H         -3.96758        1.10233       -0.73776
H         -1.81505       -2.33397       -0.69358
H         -2.61073       -0.91849       -1.19334
C         -3.57997       -1.78070        0.38162
C         -4.29850       -0.44400        0.58443
N         -2.35045       -1.50660       -0.39306
N         -4.45771        0.21491       -0.70957
H         -1.64865       -0.98843        0.18230
