25
2sa1a1ma_49.log	Energy: -974358.2989111
S          1.96689       -0.73276       -0.03198
O          0.97970       -1.81314        0.24721
O          1.66946       -0.03058       -1.29656
O          2.23141        0.15598        1.09521
O          3.36835       -1.51329       -0.24379
H          3.23459       -2.20879       -0.90215
S         -2.19588       -0.54693       -0.21821
O         -3.52768       -0.70426       -0.74203
O         -1.43170        0.65786       -0.45985
O         -2.26817       -0.60083        1.40536
O         -1.38572       -1.82040       -0.57547
H         -2.84362       -1.33021        1.67634
H         -0.39658       -1.77367       -0.26743
N          0.79731        2.44677       -0.38197
H          1.72758        2.83661       -0.24033
H          0.94485        1.52151       -0.83707
C         -0.06462        3.33470       -1.18901
H         -1.02902        2.84440       -1.30984
H         -0.19212        4.28643       -0.67218
H          0.39090        3.50097       -2.16543
H          0.38830        2.25388        0.58903
N         -0.06684        1.73748        2.16145
H         -0.95283        1.24171        2.10321
H         -0.08284        2.31965        2.99183
H          0.66387        1.03379        2.27402
