21
2sa1ma_18.log	Energy: -938855.2140009
S          1.19206        0.47621        0.16142
O          0.24179        0.07423        1.21941
O          2.36862        1.20944        0.66675
O          1.58262       -0.66269       -0.71120
O          0.44481        1.54360       -0.75893
H         -0.45223        1.20486       -0.98224
S         -2.83942       -0.29621       -0.17021
O         -3.96124       -1.10058       -0.57391
O         -2.01803        0.38770       -1.15212
O         -3.36168        0.89180        0.78439
O         -1.94985       -1.15900        0.77995
H         -4.04141        0.54290        1.37887
H         -1.05595       -0.70302        0.96109
N          4.18901       -0.25152       -0.61252
H          4.79055        0.03047       -1.38252
H          3.82789        0.58117       -0.09187
C          4.83188       -1.21476        0.31067
H          4.11085       -1.45427        1.09143
H          5.09818       -2.11992       -0.23398
H          5.71945       -0.76342        0.75261
H          3.26985       -0.62575       -0.96380
