33
2sa1ma1eda_89.log	Energy: -1058424.1037697
S          0.70364       -1.83158       -0.83160
O          0.82903       -3.21087       -1.23975
O         -0.02761       -0.94195       -1.77609
O          0.18850       -1.64341        0.56123
O          2.21863       -1.24222       -0.79674
H          1.07154       -0.70764        1.54178
H          2.17685       -0.26099       -0.84379
S          0.60455        2.16456       -0.26895
O          0.66567        3.60431       -0.36301
O          1.91833        1.45134       -0.27410
O         -0.21432        1.64670        0.88050
O         -0.17705        1.67054       -1.58198
H         -1.69266        1.21676        0.39516
H         -0.05908        0.68197       -1.69657
N          1.78208       -0.08395        2.02014
H          2.00855        0.61981        1.28756
C          2.96631       -0.86193        2.44184
H          3.71760       -0.19387        2.86307
H          2.66667       -1.60543        3.17995
H          3.36143       -1.36343        1.55859
H          1.32395        0.41215        2.78111
H         -3.81874       -0.25006       -1.13982
H         -2.05777       -0.56758       -1.17139
H         -3.27976       -2.21673        0.28595
H         -2.08279       -1.27416        1.16049
H         -4.99343       -0.94321        1.30833
H         -3.90021       -0.96427        2.52004
H         -2.74712        1.80600       -0.74115
H         -3.35431        1.24881        0.73112
C         -2.90234       -0.27929       -0.54305
C         -3.04925       -1.21023        0.65311
N         -2.66572        1.09435       -0.01643
N         -4.05485       -0.65793        1.56723
