27
2sa1tma_16.log	Energy: -988180.7900007
S         -1.48391       -1.56607       -0.14252
O         -2.55151       -2.39558       -0.66084
O         -0.34680       -2.32649        0.43846
O         -1.03636       -0.44151       -0.98271
O         -2.12159       -0.73367        1.14408
H         -2.48821       -1.37708        1.76508
S          2.37511       -0.11760        0.12474
O          1.38722        0.70249        0.79993
O          3.78109        0.05711        0.38720
O          2.04525       -1.62440        0.25692
O          2.10763        0.20172       -1.43959
H          1.03109       -1.84913        0.31240
H          2.78253       -0.24409       -1.97114
N         -1.09330        2.05737       -0.01379
C         -1.02767        2.37797        1.43410
H         -1.66524        1.67283        1.96610
H          0.00111        2.26137        1.76865
H         -1.37487        3.40300        1.58290
C         -0.15263        2.88031       -0.81434
H          0.84898        2.74186       -0.41102
H         -0.18011        2.52989       -1.84611
H         -0.45647        3.92782       -0.75623
C         -2.48316        2.14552       -0.53043
H         -2.48792        1.82945       -1.57281
H         -3.10753        1.46689        0.05013
H         -2.83481        3.17503       -0.43453
H         -0.81332        1.05922       -0.15602
