24
2sa1dma_32.log	Energy: -963495.9627576
S          1.76041       -0.95286       -0.09639
O          0.71115       -0.95491       -1.10287
O          2.93807       -0.13606       -0.23870
O          1.13477       -0.77074        1.33161
O          2.23685       -2.47938       -0.01602
H          0.20569       -0.42279        1.27709
H          3.15729       -2.50326        0.28319
S         -2.36448       -0.10115        0.10696
O         -3.60517        0.62040        0.13114
O         -1.45079       -0.05813        1.23410
O         -2.64766       -1.66614       -0.09906
O         -1.61557        0.30844       -1.21253
H         -3.37444       -1.78390       -0.72881
H         -0.68371       -0.04602       -1.20600
N          0.64699        2.04895        0.04435
C          1.17174        2.53573       -1.22545
C          1.43429        2.50272        1.18429
H         -0.30876        2.37231        0.15412
H          2.15474        2.08764       -1.39842
H          0.50941        2.22739       -2.03928
H          1.28109        3.63254       -1.26218
H          2.43460        2.06410        1.12164
H          1.54046        3.59932        1.23303
H          0.97046        2.15561        2.11152
