31
2sa1ma1dma_17.log	Energy: -1023697.3991958
S         -1.39099       -1.60508        0.34828
O         -2.41213       -2.61331        0.48781
O          0.00857       -2.05330        0.66622
O         -1.36893       -0.89579       -0.96797
O         -1.72699       -0.48329        1.45478
H         -0.86925        1.89391        0.04958
H         -0.95790        0.13135        1.55393
S          1.58989        1.11954        0.71639
O          2.63315        2.02387        1.13041
O          0.23973        1.36858        1.32426
O          1.42718        0.97919       -0.76483
O          2.02762       -0.33652        1.24977
H          1.40258       -0.53423       -1.41551
H          1.26018       -0.95902        1.20825
N          1.43608       -1.56936       -1.61120
H          0.88952       -1.97956       -0.82075
C          2.83497       -2.05050       -1.63079
H          2.85151       -3.13219       -1.76246
H          3.37469       -1.56359       -2.44262
H          3.29112       -1.78263       -0.67790
H          0.92758       -1.76278       -2.47106
N         -1.54488        1.80913       -0.73813
C         -1.09472        2.63705       -1.87620
C         -2.91546        2.09556       -0.26100
H         -1.48010        0.78941       -0.97379
H         -1.18014        3.69184       -1.61016
H         -0.05296        2.38941       -2.07942
H         -1.72072        2.42390       -2.74412
H         -2.96607        3.12396        0.09955
H         -3.61754        1.95313       -1.08368
H         -3.14775        1.39921        0.54503
