37
2sa1dma1tma_05.log	Energy: -1073017.5686995
S          0.50368        2.23809       -0.18370
O         -0.50295        2.72996        0.75974
O          1.67067        1.56334        0.40229
O         -0.09799        1.49450       -1.32076
O          1.18724        3.56307       -0.84340
H          0.47808        4.18072       -1.06498
S         -0.09753       -1.95013       -0.50902
O          0.93833       -2.94010       -0.16602
O         -1.32581       -2.46350       -1.11110
O         -0.37292       -1.03593        0.64963
O          0.65565       -1.01840       -1.58562
H          2.04725       -0.11922        0.53798
H          0.31430       -0.08220       -1.54755
N          2.69242       -0.92764        0.67018
C          3.13055       -0.92988        2.07938
C          3.77843       -0.78535       -0.32256
H          2.14673       -1.79016        0.45784
H          3.61928        0.02019        2.29863
H          2.24916       -1.04368        2.70998
H          3.82083       -1.75834        2.24601
H          4.26569        0.17923       -0.17662
H          4.49436       -1.59939       -0.19840
H          3.32713       -0.82873       -1.31342
N         -2.85493       -0.09258        0.52870
C         -3.66941       -1.30264        0.79526
H         -3.38163       -2.06909        0.07479
H         -3.45473       -1.65463        1.80481
H         -4.72874       -1.05158        0.70207
C         -3.06015        0.96871        1.54421
H         -2.86613        0.54710        2.53126
H         -2.35341        1.77655        1.34536
H         -4.09226        1.32325        1.48610
C         -3.06425        0.41346       -0.85254
H         -2.35932        1.22545       -1.03273
H         -2.85717       -0.40249       -1.54617
H         -4.09781        0.75357       -0.95332
H         -1.84097       -0.40182        0.58929
