30
2sa1a1eda_09.log	Energy: -1033766.1058507
S          2.84479       -0.26079       -0.10070
O          2.63991       -1.43280       -0.98236
O          2.89896        1.02344       -0.79275
O          1.92455       -0.28982        1.06379
O          4.29282       -0.47909        0.60752
H          4.97620       -0.32392       -0.05861
S         -2.49572       -0.98686       -0.08151
O         -2.88431        0.20482       -0.83162
O         -2.00646       -2.10760       -0.91631
O         -1.58994       -0.72113        1.06224
O         -3.83230       -1.53512        0.66576
H         -4.52210       -1.65015       -0.00195
H          0.81738        2.47862       -0.77284
H         -0.33617        1.19774       -1.18289
H         -1.30756        3.47473       -1.64337
H         -2.23551        2.55531       -0.45600
H         -0.43089        4.79308        0.13305
H         -1.96619        4.55187        0.64338
H          0.80209        1.06205        1.06425
H         -0.21172        2.38374        1.48351
C         -0.15681        2.05083       -0.52779
C         -1.28515        3.06930       -0.62455
N         -0.08832        1.56523        0.87672
N         -1.09750        4.08303        0.41751
H         -0.83271        0.86100        1.05854
N          0.46134       -2.64451        0.13236
H          0.39445       -1.96564        0.89886
H         -0.43965       -2.58166       -0.39698
H          1.28465       -2.34352       -0.44025
H          0.59994       -3.57941        0.50440
