36
2sa1dma1eda_161.log	Energy: -1083074.7002583
S         -2.34660       -1.51970       -0.50927
O         -3.64029       -2.09751       -0.80006
O         -1.17903       -2.41392       -0.65541
O         -2.09401       -0.20017       -1.17792
O         -2.41190       -1.13085        1.07637
H         -2.57412        0.94069       -0.31624
H         -1.49106       -0.98539        1.39833
S          1.32992       -0.50053        0.92153
O          2.60904       -0.60792        1.62110
O          0.12292       -0.40709        1.76232
O          1.36559        0.62635       -0.08326
O          1.23208       -1.83798        0.06824
H          2.71475        0.55129       -0.74656
H          0.28791       -2.02272       -0.24057
N          3.73022        0.44243       -1.13544
C          4.00228       -1.00318       -1.34776
C          4.65580        1.08080       -0.16869
H          3.76483        0.92967       -2.02944
H          3.93994       -1.49938       -0.37941
H          3.23342       -1.41227       -2.00219
H          4.99398       -1.12769       -1.78687
H          4.49331        0.60185        0.79775
H          5.68722        0.95235       -0.50257
H          4.41146        2.14060       -0.09331
H         -1.75074        2.98606        1.71976
H         -0.90767        1.46787        1.29180
H          0.10349        3.41465        0.09160
H         -0.59457        2.23025       -1.00782
H         -1.70462        4.86601       -0.37684
H         -1.59746        4.10985       -1.82385
H         -3.35140        1.27779        1.13747
H         -3.32000        2.46816       -0.06081
C         -1.52157        2.28596        0.91061
C         -0.84284        2.98626       -0.25798
N         -2.79905        1.71966        0.40445
N         -1.76957        3.96473       -0.83680
