36
2sa1dma1eda_187.log	Energy: -1083068.9307982
S         -0.38985        2.09894        0.55283
O         -1.27516        1.63882       -0.52190
O         -0.43182        1.27164        1.76296
O          0.98831        2.39828        0.06893
O         -0.93651        3.53264        1.06826
H         -0.77216        4.18575        0.37428
S          2.43349       -0.53683       -1.06942
O          3.47375       -1.15776       -1.84422
O          1.08438       -1.07678       -1.09912
O          2.81119       -0.60904        0.50233
O          2.44482        0.98217       -1.37058
H          3.71540       -0.28715        0.63029
H          1.77778        1.53224       -0.78949
N         -3.06017       -0.60743       -1.25380
C         -4.47007       -0.97690       -1.31364
C         -2.33540       -0.89457       -2.49253
H         -2.96136        0.38728       -1.05596
H         -4.55938       -2.06079       -1.43849
H         -4.96460       -0.69859       -0.37971
H         -4.99957       -0.49491       -2.14903
H         -2.30282       -1.97704       -2.65503
H         -2.80215       -0.42853       -3.37199
H         -1.31133       -0.52436       -2.40369
H         -1.91702       -2.65853        1.95118
H         -0.92859       -3.29131        0.60616
H          0.28709       -3.44944        2.74846
H          1.11311       -2.34373        1.64447
H          0.62578       -1.64392        4.09965
H          0.30554       -0.52098        2.95347
H         -2.00676       -1.12993        0.00421
H         -1.16905       -0.41066        1.28983
C         -1.01352       -2.50264        1.35803
C          0.21243       -2.47149        2.26378
N         -1.15348       -1.21437        0.64275
N          0.05291       -1.44735        3.28890
H         -0.33514       -1.06134        0.03481
