36
2sa1dma1eda_101.log	Energy: -1083083.5772771
S          2.34244       -0.59012       -0.93415
O          3.13433       -1.54397       -1.68370
O          0.88352       -0.85966       -0.84889
O          2.75261       -0.80567        0.65432
O          2.60502        0.83321       -1.22077
H          3.70468       -0.96977        0.68739
H          1.21784        1.83548       -1.12751
S         -2.55886        0.16717       -0.66749
O         -3.96451       -0.04205       -0.91785
O         -1.96707        1.39264       -1.26203
O         -2.14863        0.03207        0.76553
O         -1.81177       -1.07411       -1.41939
H         -1.19481       -1.19327        1.13618
H         -0.86027       -0.87391       -1.51445
N         -0.46842       -1.95515        1.26198
C         -1.09816       -3.26771        1.00714
C          0.18062       -1.81754        2.57918
H          0.21472       -1.73773        0.51188
H         -1.85568       -3.45345        1.76993
H         -1.56864       -3.22869        0.02455
H         -0.33757       -4.04956        1.03478
H         -0.57081       -1.92955        3.36232
H          0.95332       -2.57996        2.68774
H          0.63958       -0.83050        2.63817
H          1.17046        1.22206        1.27016
H         -0.56463        1.53471        1.37840
H         -0.24945        3.82803        0.53191
H          1.51254        3.59632        0.47571
H         -0.49190        1.99092       -1.06352
H          0.46588        3.21898       -1.67738
H         -0.04599        2.18458        3.47080
H          1.51121        2.58996        3.12609
C          0.42086        2.00175        1.46733
C          0.54583        3.09154        0.40435
N          0.55918        2.61225        2.78310
N          0.43058        2.50069       -0.95690
