39
2sa1eda1tma_130.log	Energy: -1107717.6478584
S          1.17786       -0.81898       -0.37615
O          1.50197        0.50085       -0.94111
O          0.16748       -1.59430       -1.11429
O          2.42327       -1.59970       -0.12234
O          0.60248       -0.57126        1.10053
H          3.58762       -0.62978        0.03119
H         -0.38163       -0.62316        1.10186
S         -3.06575       -1.17071        0.20227
O         -4.04594       -0.12501        0.02145
O         -2.07292       -1.09592        1.25816
O         -3.88310       -2.52274        0.52245
O         -2.40558       -1.53748       -1.16202
H         -4.75314       -2.45588        0.10504
H         -1.39494       -1.46953       -1.13071
H         -2.16943        1.79381        1.23728
H         -0.43687        2.04509        1.06713
H         -1.58119        4.19883        1.23568
H         -0.86188        4.03524       -0.37840
H         -3.69672        3.50320        0.17964
H         -3.09871        4.78420       -0.65128
H         -2.18626        1.55169       -1.21520
H         -0.54160        1.45178       -1.16762
C         -1.39556        2.16370        0.55037
C         -1.64866        3.64873        0.28124
N         -1.39142        1.31226       -0.62872
N         -2.92770        3.81664       -0.40471
N          4.38239        0.08470        0.18431
C          3.86406        1.07291        1.16325
H          2.97964        1.54236        0.73252
H          3.58071        0.54581        2.07485
H          4.63894        1.81357        1.37594
C          5.54558       -0.66174        0.71075
H          5.25830       -1.15139        1.64170
H          5.84015       -1.41765       -0.01762
H          6.37380        0.02828        0.89012
C          4.65937        0.71052       -1.13098
H          4.99686       -0.06232       -1.82238
H          3.72759        1.14040       -1.49907
H          5.43197        1.47499       -1.01517
