30
2sa1a1eda_143.log	Energy: -1033754.0666674
S          1.01133        0.80615        0.24012
O         -0.25548        1.48562        0.56781
O          2.12567        1.67908       -0.12473
O          1.39843       -0.18134        1.29521
O          0.74812       -0.05610       -1.09092
H         -0.09580       -0.55956       -0.99117
S         -2.80177       -0.72566       -0.05402
O         -3.88323       -1.57127        0.39886
O         -1.59766       -1.33420       -0.60447
O         -3.32232        0.27766       -1.14438
O         -2.42057        0.19511        1.16517
H         -4.24763        0.62205       -0.85230
H         -1.57090        0.70756        0.97570
H          5.47531       -1.57214        0.43028
H          3.83815       -2.28654        0.46512
H          4.60785       -1.41899       -1.84032
H          3.06524       -0.77148       -1.28547
H          5.38744        0.71805       -1.83523
H          3.93099        1.26748       -1.26096
H          4.38862       -0.53490        2.22604
H          4.34886        0.54663        0.94132
C          4.40939       -1.37227        0.29457
C          4.14211       -0.77074       -1.09235
N          4.00274       -0.35785        1.30239
N          4.67554        0.58854       -1.13010
H          2.92623       -0.29011        1.36486
N         -5.68818        0.94881       -0.19690
H         -6.44141        1.17694       -0.83694
H         -5.63442        1.67744        0.50784
H         -5.91501        0.07488        0.27238
