33
2sa1ma1eda_75.log	Energy: -1058427.8720268
S          0.45696        1.84295        0.60374
O          1.16882        3.06838        0.87282
O         -0.96718        1.78356        1.01028
O          0.56400        1.38501       -0.83752
O          1.21155        0.70016        1.44799
H          1.05400       -0.22613       -1.05518
H          0.64862       -0.12100        1.46452
S         -1.49900       -1.70178        0.45967
O         -2.20986       -2.92306        0.74809
O         -0.17378       -1.54413        1.12528
O         -1.34875       -1.40896       -1.01043
O         -2.41289       -0.50205        1.02348
H         -1.93863        0.04193       -1.50997
H         -1.86188        0.31206        1.13926
N         -1.97160        1.04167       -1.85351
H         -1.05417        1.41957       -1.52396
C         -3.13005        1.80786       -1.33333
H         -3.14995        2.79191       -1.80146
H         -4.04771        1.26322       -1.55213
H         -3.00341        1.91923       -0.25909
H         -1.96434        1.01787       -2.87091
H          3.18084       -2.14584       -1.86763
H          2.82468       -0.57513       -2.63521
H          4.73581       -0.42180       -0.97257
H          3.37341        0.61558       -0.55058
H          4.32151       -1.63415        0.93976
H          3.24397       -0.45880        1.38164
H          0.78087       -1.73605       -1.69196
H          1.47833       -1.58354       -0.20300
C          2.83522       -1.12444       -1.69130
C          3.69497       -0.42758       -0.63162
N          1.45716       -1.18872       -1.15768
N          3.51368       -1.10209        0.64712
