30
2sa1a1eda_60.log	Energy: -1033763.7054199
S         -1.93820       -1.31127       -0.20551
O         -1.75913       -2.71062       -0.59293
O         -1.12949       -0.91335        0.97381
O         -1.84271       -0.33630       -1.30405
O         -3.46369       -1.16937        0.37747
H         -4.05818       -1.62720       -0.23226
S          2.86059        0.19690        0.03941
O          2.46629        1.57034        0.41505
O          3.12705       -0.68975        1.17957
O          1.95592       -0.40101       -0.96753
O          4.25571        0.34450       -0.77940
H          4.90689        0.75335       -0.19313
H         -0.64193        3.68197        0.34066
H         -0.69267        3.25156       -1.38476
H         -3.00573        3.63029       -0.41847
H         -2.78823        1.98969       -1.04317
H         -3.20258        2.72993        1.69510
H         -3.30773        1.23941        0.99036
H          0.76212        1.77022        0.06481
H         -0.67512        1.27845        0.79707
C         -0.97507        2.93120       -0.37984
C         -2.48132        2.68213       -0.25473
N         -0.26590        1.67071       -0.06485
N         -2.76128        2.09076        1.04865
H         -0.45106        0.95195       -0.78035
N          1.04277       -2.50442        0.48746
H          0.68758       -3.39908        0.15844
H          1.83460       -2.58237        1.12649
H          1.36467       -1.89680       -0.30080
H          0.25875       -1.97628        0.93021
