27
2sa1tma_27.log	Energy: -988174.9648868
S          2.08232       -1.00472       -0.00014
O          1.37524       -1.66236        1.24615
O          1.76161        0.42488       -0.00256
O          3.45534       -1.41948        0.00034
O          1.37459       -1.66646       -1.24395
H          0.40970       -1.39633       -1.28986
S         -1.96167       -1.00518       -0.00013
O         -2.95936       -2.05794       -0.00022
O         -1.13462       -0.87803       -1.22166
O         -2.84180        0.40276       -0.00047
O         -1.13508       -0.87855        1.22193
H         -3.77022        0.13597        0.00487
H          0.40962       -1.39438        1.29046
N         -0.14343        3.04271        0.00020
C         -0.47118        2.26888       -1.24063
H         -1.51517        1.96082       -1.19610
H         -0.28137        2.90794       -2.10386
H          0.16658        1.38600       -1.25768
C          1.27876        3.49822       -0.00023
H          1.45632        4.09568       -0.89498
H          1.45720        4.09464        0.89504
H          1.91158        2.60971       -0.00103
C         -0.47029        2.26845        1.24095
H         -0.28113        2.90764        2.10423
H         -1.51393        1.95922        1.19644
H          0.16834        1.38622        1.25800
H         -0.73499        3.87433        0.00054
