30
2sa1a1eda_84.log	Energy: -1033763.6694762
S         -2.30902       -1.13663        0.11350
O         -1.96784       -2.29554        0.94872
O         -2.84147        0.02385        0.83348
O         -1.21445       -0.78070       -0.83367
O         -3.47639       -1.62800       -0.90999
H         -4.22499       -1.93698       -0.38167
S          2.96859       -0.03584       -0.13768
O          3.13166       -1.24429       -0.94986
O          2.74102        1.20775       -0.87962
O          1.96978       -0.22818        0.96177
O          4.34192        0.16080        0.70786
H          5.06548        0.28598        0.07854
H         -1.37168        1.81855        1.56209
H         -0.09725        3.06643        1.55743
H         -2.31859        3.92736        0.76912
H         -1.05694        4.10120       -0.45626
H         -2.97217        1.86483       -0.44852
H         -2.90694        3.10471       -1.54364
H          0.65224        0.94592        0.61421
H         -0.56437        0.99512       -0.52113
C         -0.76990        2.47671        0.93180
C         -1.66830        3.36595        0.08084
N          0.04741        1.58884        0.06803
N         -2.36454        2.54723       -0.89664
H          0.69276        2.08977       -0.54859
N          0.72455       -2.49086        0.03666
H          0.08963       -1.93560       -0.57710
H          1.43866       -2.97667       -0.50204
H          1.20370       -1.78600        0.63628
H          0.12081       -3.10318        0.58646
