37
2sa1dma1tma_06.log	Energy: -1073018.0487003
S          0.05591       -1.99353       -0.50013
O         -0.11625       -0.96819        0.57728
O          1.39452       -2.61346       -0.42077
O         -1.06549       -2.92381       -0.59464
O          0.06481       -1.13231       -1.86381
H         -0.13394       -0.18378       -1.65956
S          0.29939        2.13359       -0.27384
O          1.71238        1.73653       -0.47595
O         -0.61031        1.41047       -1.20283
O         -0.15646        2.17763        1.10663
O          0.23137        3.68986       -0.74887
H          0.57200        3.74182       -1.65209
N          2.85500       -0.49837        0.55699
C          4.27003       -0.48773        0.14083
C          2.63977       -0.40427        2.01708
H          2.35879        0.30923        0.11349
H          4.78677       -1.33490        0.59477
H          4.31628       -0.56931       -0.94508
H          4.73282        0.44724        0.46008
H          3.11794       -1.25427        2.50689
H          3.06415        0.53248        2.38141
H          1.56420       -0.42283        2.18900
H          2.38307       -1.36125        0.19528
N         -2.68452       -0.12359        0.56746
C         -3.07443        1.20525        1.09617
H         -2.58744        1.36092        2.05765
H         -2.72692        1.96865        0.40281
H         -4.16179        1.23558        1.20063
C         -3.19741       -0.33860       -0.81207
H         -2.80396        0.45471       -1.44637
H         -2.84305       -1.30879       -1.16366
H         -4.28934       -0.31233       -0.78644
C         -3.08808       -1.23189        1.47040
H         -2.70393       -2.16440        1.05387
H         -2.64558       -1.05874        2.45146
H         -4.17771       -1.25375        1.54429
H         -1.63632       -0.18385        0.52313
