24
2sa1dma_10.log	Energy: -963524.0231926
S          2.01890       -0.94916       -0.18268
O          2.56030       -2.12462       -0.83027
O          2.55526        0.35132       -0.63655
O          0.52908       -0.87183       -0.09927
O          2.39857       -1.05760        1.40381
H          3.21941       -1.56306        1.47833
S         -2.43953       -0.39419       -0.00154
O         -1.93961        0.97357       -0.14400
O         -3.84834       -0.61770        0.09659
O         -1.88140       -1.25880       -1.21006
O         -1.74149       -1.05194        1.26438
H         -0.89639       -1.24835       -1.17538
H         -0.76799       -1.08425        1.10039
N          0.56580        2.13348       -0.11114
C          0.74113        2.36402        1.34110
C          0.48425        3.36708       -0.92017
H          1.35581        1.52531       -0.43511
H         -0.12694        2.89904        1.72747
H          0.83182        1.39573        1.83338
H          1.65171        2.94145        1.50415
H         -0.36429        3.96353       -0.58250
H          1.41026        3.93186       -0.80596
H          0.34638        3.09371       -1.96598
H         -0.30147        1.57849       -0.23599
