27
2sa1tma_15.log	Energy: -988181.3435080
S         -2.41068       -0.26443        0.10351
O         -1.41667       -0.21147        1.16899
O         -3.81835       -0.21965        0.39514
O         -2.07343        0.75724       -0.99898
O         -2.09719       -1.70027       -0.59937
H         -1.02074        0.94251       -1.06390
H         -2.86146       -1.95051       -1.13823
S          1.14103        1.79710       -0.04357
O          1.73237        3.03071       -0.49054
O          0.35740        1.04273       -1.09193
O          2.06729        0.83068        0.61031
O          0.06050        2.20934        1.07215
H          1.82510       -0.65260        0.22028
H         -0.41591        1.40948        1.37020
N          1.86502       -1.70393        0.03370
C          1.14054       -2.37088        1.14338
H          1.64229       -2.13048        2.08120
H          0.11958       -1.98931        1.17214
H          1.14468       -3.45108        0.97960
C          1.23515       -1.97141       -1.28270
H          0.16897       -1.76434       -1.21037
H          1.68022       -1.30876       -2.02440
H          1.40050       -3.01885       -1.54772
C          3.30907       -2.03612        0.03089
H          3.79058       -1.49772       -0.78567
H          3.74520       -1.71434        0.97670
H          3.43641       -3.11315       -0.10023
