36
2sa1dma1eda_50.log	Energy: -1083089.6372616
S          2.47286       -0.88775       -0.11430
O          3.05089        0.33314        0.45562
O          2.06693       -1.89505        0.88949
O          1.42501       -0.64893       -1.12953
O          3.64768       -1.58448       -0.99916
H          4.40802       -1.73350       -0.42082
S         -2.76560        0.47993       -0.22763
O         -2.46588        1.58167       -1.16238
O         -3.32176       -0.72474       -0.84196
O         -1.63539        0.20780        0.69753
O         -3.89515        1.05428        0.79802
H         -4.69151        1.24516        0.28425
N         -0.65529       -2.32729        0.47390
C         -1.38678       -3.02861        1.54811
C         -0.87346       -2.89214       -0.87880
H         -0.97464       -1.33147        0.48316
H         -1.06564       -4.07063        1.58875
H         -1.17381       -2.53548        2.49640
H         -2.45548       -2.96951        1.33769
H         -0.59594       -3.94767       -0.87266
H         -1.92357       -2.76155       -1.14200
H         -0.23992       -2.34124       -1.57314
H          0.36427       -2.29509        0.67993
H          2.25414        2.25800       -1.05195
H          1.08126        3.44425       -1.67089
H          2.47593        4.20078        0.34845
H          0.72655        4.35043        0.57606
H          2.29099        2.06433        1.58319
H          1.48832        3.20878        2.48146
H          0.55508        0.87949       -0.95744
H          0.17523        1.68348        0.42831
C          1.34272        2.81248       -0.82107
C          1.54356        3.62997        0.45900
N          0.27264        1.80906       -0.59433
N          1.51371        2.72148        1.59575
H         -0.66771        2.03393       -0.95952
