30
2sa1a1eda_21.log	Energy: -1033767.6275549
S         -1.21202        1.62404        0.34202
O         -0.75153        1.04946       -0.97022
O         -0.54306        2.89215        0.62609
O         -2.65428        1.53005        0.51688
O         -0.64852        0.54342        1.44641
H          0.34107        0.52365        1.40049
S          2.50627       -0.74532        0.03343
O          2.88172       -0.18392       -1.27171
O          1.98447        0.28369        0.96524
O          1.66825       -1.95604       -0.01358
O          3.93053       -1.22049        0.63981
H          3.76849       -1.69787        1.46479
H         -2.21308       -3.33687       -0.81645
H         -1.99897       -3.19818        0.94795
H         -4.33364       -2.53133        0.16307
H         -3.49197       -1.24311        1.02686
H         -4.39819       -1.13312       -1.62861
H         -3.55746        0.02349       -0.79235
H         -0.14250       -2.08268       -0.32193
H         -1.32019       -1.08660       -1.00182
C         -2.19491       -2.64392        0.02753
C         -3.49354       -1.83246        0.10210
N         -1.08847       -1.68774       -0.19591
N         -3.58229       -0.95735       -1.05964
H         -0.99511       -1.02397        0.59522
N          1.60162        2.24391       -1.33025
H          0.63475        1.81106       -1.37583
H          1.74574        2.93100       -2.06364
H          1.64398        2.68838       -0.41113
H          2.28322        1.45658       -1.38219
