18
2sa1a_08.log	Energy: -914197.9527342
S          1.93309       -0.14010       -0.05215
O          2.02655        1.31090        0.00583
O          1.30518       -0.72551        1.23185
O          1.30979       -0.72288       -1.23253
O          3.43233       -0.65302        0.06744
H          3.46239       -1.61236       -0.06687
S         -2.00943       -0.32467        0.03898
O         -3.27348       -0.78659        0.54476
O         -2.04976        0.79942       -0.93913
O         -1.00484        0.05629        1.10957
O         -1.36098       -1.57388       -0.72761
H          0.25936       -0.48002        1.24072
H         -0.50932       -1.31393       -1.13161
N         -0.45844        2.66518       -0.03098
H         -0.72272        2.74089        0.95002
H          0.50260        2.28179       -0.07657
H         -1.13137        1.95231       -0.48491
H         -0.50852        3.57343       -0.48461
