24
2sa1dma_29.log	Energy: -963517.3759660
S          2.31822        0.22631        0.12128
O          3.70408        0.54931        0.32913
O          1.33733        0.47705        1.16789
O          1.76694        1.13293       -1.10768
O          2.21292       -1.21890       -0.41215
H          2.38996        1.07110       -1.84594
H          1.26489       -1.65932       -0.28374
S         -1.22172       -1.45830       -0.07401
O         -2.48098       -2.16091       -0.05646
O          0.00418       -2.29796       -0.03028
O         -1.08151       -0.41905       -1.14050
O         -1.20430       -0.59762        1.31108
H         -1.53333        0.97013       -0.77821
H         -0.28492       -0.28730        1.45125
N         -1.93760        1.93862       -0.51604
C         -0.94699        2.69553        0.28674
C         -3.23104        1.70527        0.17373
H         -2.10126        2.42063       -1.39912
H         -0.78124        2.15885        1.21959
H         -0.00739        2.73691       -0.26339
H         -1.32845        3.69784        0.48947
H         -3.02622        1.13559        1.08038
H         -3.70124        2.66034        0.41349
H         -3.87276        1.11326       -0.47895
