33
2sa1ma1eda_37.log	Energy: -1058426.8739541
S          2.19102       -1.24593       -0.23591
O          3.55629       -0.83131        0.06035
O          1.94828       -2.67564       -0.43132
O          1.15955       -0.61712        0.64392
O          1.79659       -0.51382       -1.66654
H          2.45126       -0.76840       -2.33036
S         -2.68991        0.49483       -0.29438
O         -2.94667       -0.84570       -0.87555
O         -1.87470        0.40501        0.93132
O         -2.20818        1.51073       -1.23912
O         -4.15414        1.06016        0.12503
H         -4.66280        0.32918        0.49936
N         -0.94981       -2.34249        0.31663
H         -0.39063       -3.01668       -0.20978
H         -0.28531       -1.57401        0.55364
C         -1.53226       -2.91398        1.54881
H         -2.04589       -2.10802        2.07207
H         -2.23724       -3.70319        1.28866
H         -0.73235       -3.31322        2.17179
H         -1.69490       -1.91985       -0.27971
H          0.69535        3.82500        0.25316
H         -0.01390        2.73713        1.47534
H          2.46015        3.27452        1.90196
H          2.10461        1.55149        1.75079
H          3.73369        3.10418        0.00485
H          3.55274        1.46482        0.08696
H         -0.53339        1.96408       -0.79070
H          1.15264        1.88117       -1.07744
C          0.74015        2.82479        0.69116
C          2.14771        2.49493        1.19901
N          0.40885        1.84965       -0.37175
N          3.05949        2.35321        0.06460
H          0.44893        0.89394        0.02897
