34
2sa1ma1tma_12.log	Energy: -1048353.2059897
S         -2.59764       -0.34224       -0.23331
O         -2.93490        0.82381       -1.05378
O         -2.42905       -1.59891       -0.99321
O         -1.50290       -0.10935        0.73140
O         -3.87373       -0.58838        0.75700
H         -4.66224       -0.67814        0.20498
S          2.59791       -0.34221       -0.23316
O          2.42865       -1.59815       -0.99410
O          2.93550        0.82435       -1.05280
O          1.50345       -0.10971        0.73195
O          3.87414       -0.58961        0.75665
H          4.66264       -0.67822        0.20444
N          0.00009       -2.42833        0.03365
H          0.85784       -2.36186       -0.54593
H         -0.00011       -1.55188        0.57896
C         -0.00090       -3.61363        0.91104
H         -0.89418       -3.59129        1.53509
H         -0.00024       -4.51672        0.30096
H          0.89093       -3.59136        1.53716
H         -0.85697       -2.36153       -0.54690
N         -0.00019        2.31349        0.29170
C         -1.22965        2.90824        0.87864
H         -2.09807        2.46144        0.39665
H         -1.24602        2.69486        1.94725
H         -1.20484        3.98645        0.70632
C          1.22907        2.90813        0.87911
H          1.24493        2.69489        1.94776
H          2.09767        2.46121        0.39755
H          1.20449        3.98634        0.70667
C          0.00006        2.41820       -1.19538
H          0.90160        1.93215       -1.57099
H         -0.90129        1.93199       -1.57127
H         -0.00003        3.47727       -1.46319
H         -0.00038        1.30152        0.51531
