36
2sa1dma1eda_128.log	Energy: -1083078.9968533
S         -1.17420        0.14102       -0.68823
O         -2.14744        1.16394       -0.22389
O         -0.08374        0.67428       -1.51488
O         -0.52594       -0.35503        0.69039
O         -1.86276       -1.03104       -1.28653
H         -3.31254       -1.15756       -0.45244
S          2.79648       -1.61984        0.17702
O          3.28872       -0.58838        1.11113
O          3.67709       -2.74022       -0.07296
O          1.38051       -2.01523        0.43355
O          2.68880       -0.72576       -1.21141
H          0.22244       -1.04093        0.55374
H          2.10472       -1.18399       -1.83114
N         -4.00636       -0.80903        0.26295
C         -3.69441       -1.44407        1.56522
C         -5.39769       -0.96617       -0.20076
H         -3.71593        0.18493        0.29147
H         -3.87189       -2.51715        1.48582
H         -2.64224       -1.25786        1.78648
H         -4.33027       -1.01466        2.34072
H         -5.61475       -2.02836       -0.32017
H         -6.08012       -0.53059        0.53071
H         -5.50812       -0.46065       -1.16002
H          2.54695        3.40184        1.04868
H          2.79365        3.01536       -0.67263
H          0.95011        4.75082       -0.28274
H          0.39636        3.30589       -1.13474
H         -0.48208        4.20079        1.40911
H         -1.04143        2.91674        0.52205
H          2.54409        0.94781        0.77683
H          1.00885        1.54682        1.13435
C          2.08420        2.97460        0.15596
C          0.76162        3.67813       -0.17208
N          1.76843        1.56026        0.44107
N         -0.21206        3.38598        0.87660
H          1.38165        1.10589       -0.40425
