36
2sa1dma1eda_34.log	Energy: -1083088.9064326
S         -2.65031       -0.76506       -0.16559
O         -3.11757        0.53967       -0.63165
O         -2.45697       -1.79065       -1.18797
O         -1.47327       -0.65348        0.75597
O         -3.78287       -1.33026        0.86706
H         -4.61204       -1.41466        0.37721
S          2.87276        0.31193       -0.19353
O          2.67380       -0.91760       -0.99606
O          2.78137        1.55390       -0.95565
O          2.06430        0.28968        1.04818
O          4.38999        0.22153        0.39002
H          5.00021        0.37277       -0.34442
N          0.60865       -2.36848        0.09522
C          0.15364       -3.46404       -0.78840
C          1.13346       -2.81685        1.40402
H          1.35906       -1.81966       -0.38239
H         -0.63004       -4.02856       -0.28245
H         -0.26115       -3.02975       -1.69628
H          1.00305       -4.10929       -1.01833
H          0.33325       -3.30889        1.95877
H          1.95963       -3.51003        1.23846
H          1.49029       -1.93794        1.94055
H         -0.18214       -1.71285        0.27339
H          0.62561        2.89873       -0.71348
H         -0.45113        1.59660       -1.23854
H         -1.55051        3.85189       -1.49406
H         -2.42569        2.77319       -0.40070
H         -0.75450        5.04565        0.40714
H         -2.27560        4.66903        0.87882
H          0.72048        1.38072        1.01753
H         -0.44172        2.53323        1.52049
C         -0.32227        2.39663       -0.50861
C         -1.50748        3.35461       -0.51735
N         -0.22177        1.79052        0.84622
N         -1.38056        4.27511        0.61609
H         -0.88481        0.99537        0.94439
