24
2sa1dma_24.log	Energy: -963517.8389864
S          0.90755       -0.67136        0.19195
O         -0.23246       -1.51305       -0.22646
O          2.07672       -1.38783        0.68877
O          1.26242        0.32469       -0.86909
O          0.41172        0.19183        1.45120
H         -0.46753        0.58131        1.24408
S         -3.04617        0.38684       -0.15149
O         -4.12751        1.07887       -0.80082
O         -2.03872        1.11585        0.59797
O         -3.65462       -0.64102        0.92973
O         -2.37654       -0.54944       -1.20408
H         -4.43415       -1.07211        0.55063
H         -1.50007       -0.94037       -0.85085
N          3.77061        0.91936       -0.56147
C          4.54439       -0.27095       -0.99355
C          3.93562        1.24708        0.87747
H          4.02194        1.72578       -1.13133
H          4.16901       -1.12520       -0.42913
H          4.37018       -0.43389       -2.05713
H          5.60681       -0.10967       -0.80261
H          3.60634        0.38070        1.45181
H          4.98229        1.47618        1.08482
H          3.30148        2.10043        1.11774
H          2.71916        0.71757       -0.73630
