26
2sa1eda_11.log	Energy: -998260.5909415
S         -2.55063        0.59778        0.01590
O         -2.13525       -0.19052        1.31879
O         -3.92612        0.97286        0.14033
O         -1.54576        1.64602       -0.21425
O         -2.43091       -0.45962       -1.14068
H         -1.48173       -0.75465       -1.26601
S          0.84620       -1.57117       -0.08256
O          2.29633       -1.62955       -0.23241
O          0.09962       -1.18978       -1.29312
O          0.31804       -3.07005        0.20910
O          0.43051       -0.75300        1.09840
H          0.85784       -3.46195        0.90969
H         -1.16648       -0.44933        1.29110
H          1.53283        0.93766       -1.25305
H          1.58713        2.69799       -1.42099
H          3.88425        1.57584       -1.32627
H          3.65501        2.84588       -0.11918
H          3.41601       -0.03337        0.43757
H          4.46179        1.05207        1.11466
H          0.02063        1.84358        0.27912
H          1.34479        1.22161        1.11793
C          1.84562        1.86392       -0.76680
C          3.33197        1.84028       -0.41383
N          1.03906        1.97288        0.48107
N          3.54033        0.94099        0.71138
H          1.18593        2.86582        0.94934
