31
2sa1a1tma_41.log	Energy: -1023671.9367001
S         -3.47448       -0.55134        0.02802
O         -4.78404       -1.04241       -0.31217
O         -3.22235        0.86954        0.17851
O         -3.05477       -1.17674        1.45400
O         -2.44868       -1.18255       -0.96013
H         -3.43217       -2.06539        1.52025
H         -1.54974       -0.68498       -0.96154
S          0.21366        1.17480       -0.21419
O         -0.23306        0.03221       -1.05721
O          1.42687        1.81970       -0.72817
O         -0.91562        2.29635       -0.31787
O          0.32615        0.78397        1.21252
H         -1.78484        1.89518       -0.09448
H          1.98296        1.01049        1.69405
N          2.98224        1.20441        1.45270
H          3.36373        0.31579        0.91759
H          3.53659        1.47251        2.25925
H          2.91257        1.95889        0.76320
N          3.73512       -0.92892       -0.02302
C          3.90096       -0.36731       -1.36939
H          2.99347        0.17207       -1.65068
H          4.73905        0.33608       -1.36962
H          4.10482       -1.15475       -2.11000
C          4.96174       -1.57972        0.43487
H          5.78054       -0.85451        0.45373
H          4.81660       -1.97348        1.44489
H          5.25092       -2.41293       -0.22377
C          2.59861       -1.85812        0.01539
H          2.42608       -2.18371        1.04497
H          1.69749       -1.36053       -0.34932
H          2.78969       -2.74412       -0.60846
