25
2sa1a1ma_32.log	Energy: -974362.0585336
S          1.94056       -0.85729       -0.08624
O          2.04024        0.12992       -1.16453
O          2.37671       -0.41550        1.23855
O          0.58958       -1.50581       -0.02102
O          2.94267       -2.02426       -0.57186
H          3.01597       -2.68044        0.13526
S         -2.37077       -0.42852       -0.07981
O         -3.75769       -0.60886        0.22585
O         -1.93821        0.82481       -0.68943
O         -1.52438       -0.66017        1.24804
O         -1.90450       -1.63048       -1.00527
H         -0.60732       -0.96398        0.98961
H         -0.91894       -1.66080       -1.03478
N          0.42717        2.30444       -0.52408
H         -0.49064        1.89463       -0.75258
H          0.48836        2.25902        0.53614
C          0.59971        3.66745       -1.05998
H          1.58549        4.03999       -0.78179
H          0.51122        3.64801       -2.14611
H         -0.16833        4.31952       -0.64384
H          1.13276        1.63432       -0.88371
N          0.51042        1.75965        2.22169
H          0.69520        2.41591        2.97303
H          1.24708        1.05141        2.22618
H         -0.36435        1.28478        2.43326
