33
2sa1ma1eda_175.log	Energy: -1058407.7426964
S         -2.36368       -1.14073        0.25950
O         -1.85307       -1.39385       -1.08816
O         -1.59967       -1.77050        1.34135
O         -2.63441        0.31305        0.49478
O         -3.81742       -1.83903        0.39184
H         -4.41446       -1.41915       -0.24242
S         -0.06643        2.40619       -0.43951
O          0.32557        3.65005       -1.04822
O          0.72158        1.20845       -0.69274
O          0.01011        2.54370        1.17034
O         -1.56784        2.17733       -0.71190
H         -0.49004        3.32502        1.44740
H         -1.98246        1.32947       -0.23413
N          3.34559       -0.81455        1.74725
H          3.75862       -1.22598        2.57673
C          3.26279        0.64659        1.85957
H          4.23345        1.13173        2.01916
H          2.82270        1.04945        0.94335
H          2.59840        0.91292        2.68499
H          3.90143       -1.07800        0.93430
H          1.55272       -3.27663       -0.41315
H          0.22705       -2.45462       -1.27026
H          2.12237       -2.32279       -2.71897
H          1.86331       -0.71178       -2.05260
H          3.98998       -2.56897       -1.29114
H          4.11754       -1.03421       -1.81893
H          0.16267       -1.70215        0.90684
H          1.84392       -1.32728        0.98414
C          1.20206       -2.31476       -0.79888
C          2.18633       -1.72602       -1.79876
N          0.99329       -1.41076        0.36056
N          3.54773       -1.65508       -1.25415
H          0.78234       -0.46007        0.01941
