36
2sa1dma1eda_86.log	Energy: -1083088.3797577
S          0.75891        1.86958        0.44871
O          2.00628        1.90485        1.20793
O          0.81317        1.20482       -0.85998
O         -0.41968        1.43620        1.25421
O          0.42100        3.41788        0.04338
H          0.65724        3.97763        0.79545
S         -1.29291       -2.07154        0.30396
O         -2.62276       -2.10247        0.90003
O         -0.60395       -3.33685        0.04725
O         -1.22515       -1.17014       -0.89716
O         -0.28837       -1.36313        1.38504
H         -2.06779        0.17470       -0.80555
H         -0.48445       -0.40685        1.48229
N         -2.53168        1.09382       -0.54335
C         -3.90210        0.82238       -0.05949
C         -2.43613        2.04948       -1.66540
H         -1.92575        1.41528        0.23338
H         -4.50666        0.46751       -0.89542
H         -3.84883        0.03887        0.69767
H         -4.33394        1.73684        0.35100
H         -2.97843        1.64554       -2.52155
H         -2.86800        3.00682       -1.36902
H         -1.38285        2.17784       -1.91576
H          3.41926       -2.50686       -1.26966
H          2.74038       -1.38478       -2.47539
H          4.74909       -0.42355       -1.19853
H          3.27705        0.54728       -1.06094
H          4.56584       -0.89188        1.06289
H          3.42980        0.31961        1.12770
H          1.07933       -2.46409       -0.80650
H          1.84136       -1.50051        0.31093
C          2.92283       -1.54382       -1.41133
C          3.73650       -0.40453       -0.78092
N          1.62901       -1.60093       -0.69628
N          3.70226       -0.54469        0.66913
H          1.01345       -0.80592       -0.93485
