25
2sa1a1ma_33.log	Energy: -974359.9163920
S         -2.01038       -0.81263       -0.03329
O         -2.44442       -0.09510        1.15339
O         -1.67504        0.03544       -1.19700
O         -0.93731       -1.82569        0.21346
O         -3.30003       -1.68718       -0.45638
H         -3.06172       -2.24416       -1.21017
S          2.20232       -0.44867       -0.04938
O          1.92603       -0.28448        1.36654
O          2.18028        0.73304       -0.89237
O          3.67615       -1.03955       -0.24346
O          1.35671       -1.59798       -0.64434
H          3.77945       -1.82892        0.30789
H          0.36349       -1.65342       -0.26770
N         -0.20578        2.27942       -0.54783
H         -0.83803        1.52661       -0.89096
H         -0.21696        2.19843        0.52185
C         -0.61808        3.61645       -1.01153
H          0.07442        4.36487       -0.62545
H         -0.62076        3.64790       -2.10119
H         -1.62196        3.82290       -0.64051
H          0.73842        2.01299       -0.85123
N         -0.27132        1.73223        2.16425
H         -0.30212        2.38564        2.93927
H          0.52941        1.11557        2.29584
H         -1.10536        1.14399        2.20053
