39
2sa1eda1tma_94.log	Energy: -1107737.1983238
S         -0.95872       -2.06651       -0.32758
O          0.48975       -2.32328       -0.34688
O         -1.44936       -1.62669        0.99114
O         -1.39980       -1.19965       -1.44347
O         -1.69965       -3.48543       -0.53921
H         -1.48787       -3.81712       -1.42297
S         -2.44559        1.58116        0.40264
O         -3.22659        2.76691        0.59339
O         -1.00774        1.61999        0.67878
O         -3.08482        0.42587        1.26633
O         -2.65168        1.10694       -1.08869
H         -2.52117       -0.39837        1.21741
H         -2.17979        0.24368       -1.26183
H          2.08623        1.26626        2.48919
H          1.25014       -0.19050        3.04753
H          3.63076       -0.52635        3.37417
H          3.07981       -1.60261        2.09032
H          4.59419        0.87093        1.68960
H          4.96690       -0.64069        1.19821
H          0.37469        0.53304        0.95481
H          1.85224        0.49736        0.15118
C          1.93815        0.20034        2.29397
C          3.26037       -0.55129        2.33913
N          1.29864        0.07055        0.97064
N          4.19614       -0.00301        1.36069
H          1.14330       -0.91546        0.70871
N          2.28174        0.97954       -1.41489
C          1.02547        1.30793       -2.09187
H          0.34537        0.45344       -2.03745
H          0.54864        2.15710       -1.59588
H          1.19053        1.55818       -3.15217
C          3.20740        2.10543       -1.43012
H          2.74055        2.97232       -0.95361
H          4.10853        1.83799       -0.87205
H          3.49414        2.38683       -2.45720
C          2.88928       -0.21845       -1.99140
H          3.79536       -0.46359       -1.43137
H          2.18865       -1.05436       -1.90880
H          3.14715       -0.07309       -3.05317
