25
2sa1a1ma_67.log	Energy: -974340.8176456
S          2.19137        0.66783        0.00779
O          1.31709        0.20394        1.06711
O          3.62134        0.69007        0.18397
O          1.89251       -0.08204       -1.32519
O          1.69073        2.16877       -0.27923
H          0.91050       -0.34951       -1.40268
H          2.33221        2.60937       -0.85534
S         -1.64871       -0.54789       -0.57387
O         -2.84595       -1.37648       -0.78714
O         -0.53740       -0.82659       -1.50035
O         -1.97859        0.89894       -0.48363
O         -1.16182       -0.98721        0.89614
H         -3.61692        1.00146       -0.01166
H         -0.28298       -0.58500        1.07489
N         -4.47891        0.47238        0.28498
H         -5.32854        0.91687       -0.05362
C         -4.46694        0.26508        1.75487
H         -5.29503       -0.38288        2.03963
H         -3.51849       -0.20812        2.01089
H         -4.54828        1.22931        2.25486
H         -4.30105       -0.42732       -0.20735
N          5.67197       -1.68350        1.02353
H          5.88688       -2.15024        0.14961
H          6.52767       -1.26813        1.37396
H          5.01839       -0.93257        0.82212
