30
2sa1a1eda_19.log	Energy: -1033766.4515645
S         -2.85659        0.04966       -0.09031
O         -2.60390        1.24645       -0.91891
O         -2.92351       -1.20180       -0.87858
O         -1.97653       -0.05238        1.08063
O         -4.33149        0.25681        0.55398
H         -4.95979        0.40054       -0.16691
S          2.16460       -1.19919       -0.11596
O          1.67480       -2.45010       -0.73375
O          2.78324       -0.25771       -1.04964
O          1.15258       -0.58967        0.77702
O          3.32027       -1.64239        0.94246
H          4.04417       -2.04693        0.44507
H          0.13887        3.72692        0.23346
H          0.02736        2.54668        1.56705
H          2.36381        3.59551        1.27244
H          2.33790        1.83128        1.21088
H          3.19243        3.54466       -0.84081
H          3.05443        1.89500       -0.89970
H         -0.93285        1.73110       -0.59086
H          0.64702        1.86144       -1.20691
C          0.49802        2.76520        0.60713
C          2.02837        2.73830        0.68123
N          0.08079        1.72382       -0.36052
N          2.57580        2.76217       -0.67376
H          0.31862        0.79054        0.03116
N         -0.88005       -2.59161        0.32258
H         -1.13331       -3.43147        0.83445
H         -1.65922       -2.29083       -0.30330
H         -0.74654       -1.80072        0.96886
H          0.02109       -2.71660       -0.18844
