30
2sa1a1eda_161.log	Energy: -1033752.2911858
S         -1.63696       -1.32072       -0.45191
O         -1.99375       -1.04965        0.94425
O         -1.51591       -0.11695       -1.28422
O         -0.49323       -2.26543       -0.58086
O         -2.86952       -2.11693       -1.13571
H         -2.88018       -3.01655       -0.78085
S          2.37929       -0.65036        0.49943
O          3.76185       -0.75557        0.88065
O          1.48843        0.23937        1.22345
O          2.27922       -0.09926       -1.01990
O          1.79586       -2.08204        0.39626
H          2.87007       -0.61551       -1.58712
H          0.81991       -2.11029        0.04409
H         -1.09848        3.79482       -0.06544
H          0.25987        3.57730        1.07117
H          1.08617        4.02253       -1.19922
H          1.54993        2.39444       -0.69288
H          0.46398        2.77130       -3.00813
H         -0.14724        1.52802       -2.14012
H         -1.50813        1.85949        1.36281
H         -1.23326        1.34310       -0.20582
C         -0.25253        3.15806        0.20189
C          0.69558        3.02356       -0.98359
N         -0.78985        1.83269        0.59196
N         -0.02489        2.53769       -2.15314
H         -0.02601        1.21062        0.89647
N         -2.78885        1.36694        2.52099
H         -2.82928        0.41014        2.16457
H         -3.71871        1.76776        2.45588
H         -2.54275        1.32085        3.50449
