33
2sa1ma1eda_67.log	Energy: -1058426.9557814
S         -0.81010       -1.62976       -0.12610
O         -0.69144       -0.64948       -1.39978
O         -0.41255       -0.79144        1.04517
O         -2.21573       -2.02068       -0.13432
O          0.17751       -2.71756       -0.31382
H          1.53724       -2.17170        0.49232
S          1.85633        1.52500       -0.09728
O          2.56908        0.94921        1.06621
O          0.64221        2.27180        0.20635
O          2.84321        2.66903       -0.69626
O          1.71582        0.51201       -1.17566
H          3.69058        2.25812       -0.91200
H          0.21115       -0.23721       -1.41538
N          2.42761       -1.79802        0.91228
H          2.31565       -0.76999        1.06996
C          3.55964       -2.03035       -0.01144
H          4.47280       -1.62348        0.42279
H          3.66786       -3.09885       -0.19637
H          3.32942       -1.51010       -0.94072
H          2.56461       -2.24534        1.81566
H         -3.00431       -0.09652        1.51334
H         -3.36981        1.53128        2.12915
H         -5.17131        0.48753        0.62349
H         -4.61606        2.07559        0.07272
H         -3.58136       -0.46206       -1.01864
H         -4.45149        0.69920       -1.82433
H         -1.11529        0.78351        0.87655
H         -2.02486        1.26555       -0.42545
C         -3.17141        0.94509        1.23111
C         -4.31064        1.03216        0.21173
N         -1.90733        1.40429        0.59647
N         -3.81253        0.53024       -1.05899
H         -1.63908        2.37024        0.77095
