36
2sa1dma1eda_60.log	Energy: -1083089.2396967
S          2.42781       -0.83990       -0.08184
O          2.98808        0.43307        0.38038
O          2.33422       -1.90527        0.91545
O          1.15652       -0.66837       -0.85049
O          3.42105       -1.37644       -1.25985
H          4.29495       -1.51326       -0.86953
S         -2.79419        0.40087       -0.16744
O         -1.82909        0.42831        0.93798
O         -2.54759        1.42621       -1.20008
O         -3.00435       -0.95503       -0.72427
O         -4.19799        0.80974        0.54563
H         -4.88091        0.85049       -0.13740
N         -0.78989       -2.36210        0.18596
C         -0.47168       -3.61813       -0.52370
C         -0.78487       -2.47950        1.66287
H         -0.08365       -1.65589       -0.10415
H         -1.20707       -4.37915       -0.25883
H         -0.50029       -3.42995       -1.59682
H          0.52951       -3.93791       -0.23174
H         -1.50373       -3.24534        1.95881
H          0.22337       -2.74242        1.98366
H         -1.07600       -1.51268        2.07209
H         -1.70216       -1.97493       -0.13761
H          2.08172        2.24436       -1.17652
H          0.87785        3.40655       -1.77813
H          2.46948        4.27390        0.04683
H          0.74983        4.49934        0.40256
H          2.32503        2.24477        1.45947
H          1.65026        3.49014        2.32627
H          0.41653        0.90564       -0.74681
H          0.06808        1.89172        0.52131
C          1.20411        2.83513       -0.90827
C          1.53487        3.74487        0.27928
N          0.13977        1.87828       -0.50987
N          1.57461        2.93218        1.48618
H         -0.80339        2.03867       -0.89982
