31
2sa1ma1dma_12.log	Energy: -1023697.4667785
S         -2.04100       -0.41186       -0.48922
O         -1.55695       -1.73927       -0.90854
O         -2.05457       -0.17183        0.95184
O         -1.37623        0.68649       -1.25145
O         -3.60370       -0.34765       -0.90989
H         -3.67939       -0.58012       -1.84581
S          2.10654        0.85731       -0.34568
O          3.46390        0.35559       -0.38149
O          1.34618        0.42535        0.89589
O          1.87617        2.28598       -0.59131
O          1.35972        0.03752       -1.53573
H          0.17512        3.06710        0.41818
H          0.42396        0.32855       -1.60226
N         -0.53235        2.41447        0.76861
H         -0.99528        1.99600       -0.06063
C         -1.49767        2.97893        1.73078
H         -2.19391        2.18858        2.00915
H         -0.96393        3.33897        2.61004
H         -2.03588        3.80310        1.26276
H          0.02778        1.62087        1.14528
N          0.72474       -2.17847        0.62908
C          1.93361       -2.86142        0.11888
C          0.15412       -2.74811        1.86724
H          0.96379       -1.16424        0.79626
H          1.69958       -3.90624       -0.09199
H          2.25838       -2.35014       -0.78700
H          2.72056       -2.79537        0.87094
H         -0.10781       -3.79382        1.69856
H          0.89288       -2.67314        2.66650
H         -0.73920       -2.17652        2.12205
H         -0.01878       -2.15644       -0.09348
