30
2sa1a1eda_113.log	Energy: -1033761.5675454
S         -2.70777       -0.31056       -0.08773
O         -3.93703       -1.03891       -0.18356
O         -3.04044        1.21601        0.06675
O         -1.74177       -0.68404        0.96105
O         -1.95826       -0.41488       -1.47180
H         -0.87975       -2.63007        0.89371
H         -1.03841       -0.01274       -1.38974
S          0.52514        1.62893        0.05383
O          1.79987        2.31587        0.04304
O          0.42088        0.56532       -1.01547
O          0.54287        0.77927        1.43672
O         -0.69553        2.44967        0.07991
H         -0.31489        0.30431        1.49975
H         -2.19986        1.76276        0.09626
H          3.70498       -2.50638       -0.17136
H          2.87168       -2.11722       -1.69688
H          4.84039       -0.55886       -1.20703
H          3.29835        0.28130       -1.38657
H          4.88091        0.14808        0.97656
H          3.54938        1.07770        0.65369
H          2.13386       -1.05468        0.93422
H          1.26469       -0.84526       -0.44026
C          3.11864       -1.74973       -0.69868
C          3.85937       -0.40632       -0.74530
N          1.86738       -1.53143        0.06025
N          3.94123        0.14169        0.60441
N         -0.19715       -3.36120        0.68270
H          1.27294       -2.37364        0.27214
H         -0.58239       -3.90709       -0.08277
H         -0.15290       -3.97572        1.48991
