28
2sa1a1dma_35.log	Energy: -999028.1959218
S         -2.06157       -0.34080       -0.38727
O         -1.10295        0.45259       -1.20788
O         -3.44793       -0.23798       -0.77244
O         -1.64346       -1.88544       -0.61750
O         -1.80943       -0.08115        1.06992
H         -0.66280       -1.95831       -0.66472
H         -0.89728       -1.08259        1.84060
S          1.94846       -0.76861       -0.24405
O          1.07340       -1.98491       -0.16905
O          3.35767       -1.02339       -0.41555
O          1.47048        0.02841       -1.54537
O          1.60444        0.12326        0.91672
H          0.47750        0.12929       -1.51247
H          1.03893        1.58441        0.58076
N          0.75926        2.61005        0.53522
C         -0.41281        2.81597        1.42399
C          0.53002        3.03585       -0.87104
H          1.56516        3.11196        0.90734
H         -1.19533        2.12023        1.11965
H         -0.11712        2.59138        2.44908
H         -0.74958        3.85088        1.34648
H         -0.34720        2.50550       -1.24107
H          0.37368        4.11561       -0.89461
H          1.40102        2.75684       -1.46370
N         -0.18399       -1.78679        2.22476
H          0.38663       -2.06692        1.39116
H         -0.64679       -2.58644        2.64712
H          0.43489       -1.32634        2.88705
