31
2sa1a1tma_43.log	Energy: -1023659.8808125
S          2.46416       -1.01122       -0.13682
O          3.85492       -0.64884       -0.17760
O          1.56955       -0.68966       -1.23116
O          2.33764       -2.60688        0.00920
O          1.88527       -0.48028        1.22096
H          3.03280       -2.92745        0.60234
H          0.88447       -0.51994        1.21707
S         -1.75072       -0.45739        0.19277
O         -2.55578        0.71643        0.47029
O         -0.69839       -0.82609        1.13618
O         -2.68270       -1.68745        0.02544
O         -1.11735       -0.31929       -1.24652
H         -3.67982       -1.38074       -0.12647
H         -0.12912       -0.32088       -1.20491
N         -5.08961       -0.81047       -0.28955
H         -5.79731       -1.27121        0.27378
H         -5.41390       -0.78667       -1.25135
H         -4.99033        0.14845        0.03680
N          0.51862        2.22020       -0.02737
C          0.20516        2.62632        1.33339
H         -0.83897        2.39153        1.55554
H          0.84222        2.07972        2.03527
H          0.36449        3.71018        1.49497
C          1.90940        2.50272       -0.34437
H          2.56642        2.00771        0.37559
H          2.14691        2.12318       -1.34222
H          2.12957        3.58743       -0.32034
C         -0.36293        2.87247       -0.98237
H         -0.14939        2.50557       -1.99098
H         -1.40314        2.63738       -0.74570
H         -0.23790        3.97283       -0.98037
