39
2sa1eda1tma_102.log	Energy: -1107736.8524531
S          1.02360       -0.02731       -0.02778
O          1.49889        1.36674       -0.18486
O         -0.04562       -0.19115       -1.18638
O          2.13008       -0.99546       -0.30208
O          0.34857       -0.29111        1.25201
H          3.35622       -0.17493       -0.74208
H         -2.32471        0.90105        0.34900
S         -2.94131       -1.62019       -0.02712
O         -3.64056       -2.69317        0.64679
O         -3.76088       -0.66098       -0.78064
O         -2.32881       -0.61119        1.16384
O         -1.70905       -2.04831       -0.74893
H         -1.38108       -0.80635        1.33625
H         -0.67228       -0.99286       -1.04669
H          5.37867        1.58928        0.55877
H          3.92085        0.85186        1.26999
H          5.97535       -0.50460        1.80314
H          4.80543       -1.40539        0.83316
H          7.34302       -0.30678       -0.11064
H          6.66342       -1.76118       -0.42047
H          3.58308        1.43024       -1.05046
H          4.83864        0.35246       -1.47290
C          4.72656        0.71129        0.54767
C          5.51047       -0.56902        0.81191
N          4.11074        0.59334       -0.79579
N          6.46184       -0.77865       -0.28119
N         -2.47139        1.90353        0.08546
C         -2.28591        2.04311       -1.38251
H         -1.25987        1.76994       -1.62601
H         -2.97136        1.35136       -1.87135
H         -2.49467        3.07880       -1.66142
C         -3.86912        2.19876        0.49027
H         -4.52472        1.51571       -0.04927
H         -3.96633        2.02126        1.56157
H         -4.09487        3.24141        0.25541
C         -1.48175        2.70124        0.85173
H         -1.60152        2.47686        1.91204
H         -0.47466        2.42687        0.53127
H         -1.66597        3.76228        0.66736
