30
2sa1a1eda_43.log	Energy: -1033764.6234035
S          2.86650        0.12123       -0.02219
O          2.45654        1.51662        0.25281
O          2.73381       -0.75767        1.16246
O          2.27615       -0.44449       -1.23762
O          4.45292        0.19106       -0.35720
H          4.90085        0.62259        0.38306
S         -2.11895       -1.24459        0.08827
O         -1.65265       -2.37523        0.92007
O         -2.85553       -0.21441        0.82243
O         -1.04481       -0.72710       -0.78781
O         -3.15762       -1.88143       -0.99121
H         -3.91526       -2.23558       -0.50582
H         -1.01755        1.45849        1.30298
H         -0.01821        2.92505        1.27043
H         -2.52157        3.34456        1.39145
H         -1.71171        4.15918        0.04791
H         -3.16717        1.62350       -0.23518
H         -3.60043        3.08553       -0.86513
H          0.88762        1.77528       -0.42022
H         -0.52311        0.92811       -0.79288
C         -0.76377        2.34692        0.72218
C         -2.01042        3.17574        0.43218
N         -0.14306        1.86715       -0.54784
N         -2.81368        2.51321       -0.58447
H         -0.36452        2.49043       -1.32326
N          0.97744       -2.59861        0.13276
H          1.63419       -2.06913        0.74739
H          0.02037       -2.66104        0.54650
H          0.91161       -2.02450       -0.71820
H          1.35404       -3.51581       -0.08708
