33
2sa1ma1eda_185.log	Energy: -1058407.8904122
S          0.02221       -1.72502       -0.43023
O          1.10933       -2.65801       -0.70849
O         -1.31164       -2.32802       -0.20872
O          0.35320       -0.75162        0.64945
O         -0.09181       -0.85469       -1.78276
H          2.04441       -0.71063        0.72910
H         -0.83791       -0.22678       -1.67453
S         -2.98885        0.68248        0.18717
O         -2.18184        0.80109       -1.01450
O         -4.26515        1.33905        0.28536
O         -3.18137       -0.80799        0.58761
O         -2.02286        1.26513        1.34429
H         -2.40441       -1.41728        0.29011
H         -2.51157        1.29051        2.17931
N          3.05459       -0.88631        0.50434
H          3.00205       -1.49475       -0.31703
C          3.73398       -1.56549        1.62537
H          4.77330       -1.76447        1.36296
H          3.69530       -0.91929        2.50241
H          3.21862       -2.50191        1.83769
H          3.49083        0.05108        0.26956
H          3.16210        3.52987       -0.86636
H          3.54713        2.14444       -1.90092
H          1.07719        2.51841       -1.65519
H          1.58157        0.92294       -1.14216
H          0.64117        3.05271        0.56371
H          0.42856        1.43367        0.67302
H          4.81608        2.11924        0.17169
H          3.40333        2.07764        1.01585
C          3.10710        2.43430       -0.94163
C          1.64665        1.98375       -0.88312
N          3.85727        1.78696        0.14901
N          1.10944        2.15940        0.46497
