31
2sa1a1tma_13.log	Energy: -1023690.1722445
S          2.41572       -0.76729       -0.21102
O          2.06648       -2.08715       -0.75311
O          2.65524        0.28149       -1.20347
O          1.50711       -0.33752        0.88990
O          3.81943       -0.96505        0.60082
H          4.48918       -1.25421       -0.03372
S         -2.67992       -0.41000       -0.01510
O         -2.80566       -1.74180        0.63069
O         -3.40937        0.66047        0.66220
O         -1.27950       -0.10496       -0.35015
O         -3.36549       -0.56687       -1.49010
H         -4.32322       -0.60985       -1.36734
N         -0.22101       -2.52681        0.81840
H          0.24873       -1.64697        1.10787
H          0.21926       -2.73259       -0.08547
H         -0.01744       -3.27344        1.47622
H         -1.25609       -2.35305        0.72895
N          0.38700        2.16403        0.16919
C          1.68724        2.75491        0.57931
H          1.87203        2.50278        1.62323
H          2.47032        2.32566       -0.04499
H          1.63305        3.83819        0.45248
C          0.13056        2.37019       -1.28255
H          0.95161        1.91183       -1.83396
H         -0.80467        1.87233       -1.53134
H          0.07551        3.44385       -1.47553
C         -0.73160        2.66613        1.00848
H         -1.65527        2.16269        0.72229
H         -0.50755        2.44781        2.05322
H         -0.81715        3.74531        0.86382
H          0.46374        1.13957        0.32315
