33
2sa1ma1eda_134.log	Energy: -1058412.1019545
S         -3.61083        0.15871       -0.41583
O         -4.97815        0.13326       -0.86380
O         -2.51904       -0.01256       -1.35924
O         -3.31282        1.59570        0.25094
O         -3.47164       -0.83175        0.77486
H         -4.06239        1.84065        0.81221
H         -2.49126       -1.08202        0.97358
S          0.11260       -0.79143        0.78879
O          1.37851       -1.45644        1.08036
O         -1.09008       -1.54476        1.21150
O          0.05600        0.62789        1.20184
O          0.06930       -0.77443       -0.84014
H          1.47168        1.47579        0.71942
H         -0.83304       -0.49974       -1.11815
N          2.38219        1.79213        0.31686
H          3.13922        1.21624        0.76519
C          2.58118        3.24658        0.39907
H          3.53259        3.51318       -0.06320
H          1.76903        3.75641       -0.12012
H          2.58694        3.55598        1.44460
H          2.43199        1.40207       -0.65563
H          2.72010       -1.71034       -0.87978
H          3.85827       -1.71133       -2.22735
H          5.19065       -1.72832       -0.33408
H          5.28329       -0.05249       -0.88630
H          3.39802       -0.90506        1.20905
H          4.89938       -0.31764        1.53279
H          3.20091        0.41863       -2.77778
H          1.80553       -0.14345       -2.11734
C          3.46152       -1.10233       -1.40512
C          4.61219       -0.80048       -0.44548
N          2.77330        0.09859       -1.91501
N          4.14233       -0.29971        0.85733
