30
2sa1a1eda_173.log	Energy: -1033751.5778645
S          0.23548        2.25929       -0.13976
O          0.89290        1.18880       -0.88551
O          0.93805        3.48972        0.07127
O         -1.15038        2.58555       -0.83690
O         -0.21404        1.68034        1.27071
H         -0.98430        1.05536        1.11413
S         -2.30445       -1.08313        0.00558
O         -1.37886       -1.81697        0.87761
O         -3.65510       -1.58371       -0.14449
O         -2.22574        0.39025        0.26944
O         -1.59235       -1.24517       -1.47610
H         -1.74063        1.79689       -0.75770
H         -2.29584       -1.35822       -2.12858
H          2.53660       -3.06886       -0.53967
H          1.82192       -2.29134       -1.96732
H          4.17777       -1.60951       -1.78297
H          3.12245       -0.22273       -1.50453
H          4.67405       -1.62152        0.52892
H          4.44482       -0.01268        0.30934
H          0.34548       -2.03650       -0.06026
H          1.51318       -1.33779        0.87840
C          2.25542       -2.10897       -0.98112
C          3.45610       -1.17371       -1.07789
N          1.21821       -1.49935       -0.12376
N          3.99862       -0.91914        0.25091
H          0.96071       -0.56473       -0.48175
N          1.12487       -0.88068        2.59071
H          1.69861       -1.16878        3.37519
H          0.18033       -1.23304        2.72990
H          1.07164        0.13481        2.59458
