36
2sa1dma1eda_189.log	Energy: -1083072.4258628
S         -0.86468        2.22778       -0.28099
O         -0.81437        1.90150        1.15509
O          0.42801        2.40215       -0.93262
O         -1.78292        1.31065       -1.02025
O         -1.54737        3.69281       -0.39589
H         -2.40902        3.66435        0.04201
S         -2.03599       -1.86546        0.20427
O         -2.85438       -2.98538        0.59128
O         -0.86512       -1.49404        0.96710
O         -1.42051       -2.15530       -1.27637
O         -2.97033       -0.65257       -0.04915
H         -2.13081       -2.44864       -1.86469
H         -2.45574        0.18684       -0.38627
N          1.44808        0.24742        1.49448
C          2.39132        1.38457        1.53069
C          1.68963       -0.76618        2.53772
H          0.48848        0.62636        1.56058
H          3.39783        0.99306        1.38153
H          2.12266        2.07393        0.72947
H          2.31173        1.89037        2.49464
H          2.69107       -1.17203        2.39209
H          1.60852       -0.29880        3.52126
H          0.94212       -1.55139        2.43682
H          2.26565       -2.26732       -1.70678
H          2.37839       -1.05331       -2.97964
H          4.54442       -1.22622       -2.07298
H          3.89495        0.30057       -1.46615
H          3.92503       -2.18247        0.10026
H          4.93659       -0.92549        0.30334
H          0.44914       -0.91103       -1.35621
H          1.49449       -0.18738        0.52085
C          2.41197       -1.19603       -1.89027
C          3.79547       -0.78929       -1.39494
N          1.35072       -0.46792       -1.19928
N          3.99790       -1.17293        0.00583
H          1.26372        0.48867       -1.54255
