33
2sa1ma1eda_34.log	Energy: -1058428.9575178
S         -0.63122        1.96220       -0.50375
O          0.65082        1.74955       -1.20384
O         -1.74979        1.19792       -1.08572
O         -0.51382        1.83722        0.96099
O         -1.00345        3.52755       -0.69943
H         -1.10055        3.70103       -1.64609
S          1.97354       -1.47294       -0.55153
O          0.97439       -1.39251        0.56867
O          3.07514       -0.51303       -0.28143
O          2.35926       -2.81463       -0.92466
O          1.17626       -0.89200       -1.83422
H          1.05415        0.07861       -1.72276
N          2.18203        1.26188        1.49656
H          1.18195        1.47409        1.30317
H          2.54322        0.64289        0.71290
C          2.33128        0.54644        2.78356
H          3.38848        0.35716        2.96808
H          1.90517        1.14230        3.59096
H          1.80453       -0.40227        2.68406
H          2.69453        2.14072        1.47850
H         -2.12460       -1.86250        1.85829
H         -1.96923       -0.12423        1.50594
H         -4.38528       -0.78414        1.71843
H         -3.99525       -0.19544        0.09861
H         -4.42390       -2.99610        0.83930
H         -5.05926       -2.15318       -0.41041
H         -0.56479       -1.54388        0.10284
H         -2.01731       -2.20865       -0.55850
C         -2.34233       -1.07823        1.12792
C         -3.82873       -1.01762        0.80145
N         -1.59075       -1.39511       -0.10875
N         -4.22995       -2.26947        0.15870
H         -1.65007       -0.57983       -0.74494
