30
2sa1a1eda_53.log	Energy: -1033766.8521540
S          2.44370        0.37967       -0.16966
O          1.93852        0.70330        1.18365
O          2.10758       -1.00104       -0.57464
O          2.13085        1.39802       -1.17880
O          4.05032        0.40174        0.03712
H          4.47069        0.26177       -0.82288
S         -1.56178       -1.53645       -0.43686
O         -1.52513       -0.48430       -1.48034
O         -2.65409       -2.47725       -0.49343
O         -0.22040       -2.41816       -0.64244
O         -1.36718       -0.89119        0.91436
H          0.54376       -1.83125       -0.84374
H         -0.13051       -1.40845        1.74750
H         -1.24010        3.75774       -0.07638
H         -1.81048        3.03216       -1.60511
H         -3.58213        3.11782        0.22927
H         -3.28362        1.50047       -0.41104
H         -3.11884        2.18706        2.22693
H         -2.39685        0.85774        1.56730
H          0.36513        2.07344       -0.86821
H         -0.37619        1.60864        0.53753
C         -1.60907        2.84456       -0.54843
C         -2.84406        2.31252        0.18090
N         -0.54262        1.82124       -0.45332
N         -2.46681        1.87180        1.52197
H         -0.86043        0.92491       -0.90613
N          0.84704       -1.60862        2.12916
H          1.25534       -2.34192        1.54976
H          0.83313       -1.88441        3.10617
H          1.39208       -0.72959        1.97008
