25
2sa1a1ma_70.log	Energy: -974338.9230439
S          1.81161        0.41684       -0.26708
O          0.72225        0.74191       -1.18061
O          2.96447        1.28418       -0.20419
O          1.24411        0.34212        1.20965
O          2.24279       -1.04726       -0.58942
H          0.34934       -0.08291        1.20591
H          3.18104       -1.23798       -0.16908
S         -2.17400       -0.89293        0.10312
O         -3.37848       -0.27375        0.59922
O         -1.02302       -1.11522        0.96016
O         -2.57238       -2.35829       -0.41834
O         -1.72967       -0.21903       -1.23968
H         -3.50990       -2.35514       -0.65822
H         -0.81342        0.17797       -1.17040
N         -1.35167        2.05845        0.85486
H         -2.09247        2.00583        1.54609
C         -1.76037        2.88897       -0.27713
H         -1.98210        3.93504       -0.02137
H         -0.96582        2.87972       -1.02817
H         -2.65198        2.45077       -0.73287
H         -0.53609        2.45238        1.31220
N          4.60956       -1.32609        0.45016
H          4.62003       -1.67785        1.40252
H          4.92556       -0.35889        0.46654
H          5.27049       -1.86904       -0.09640
