37
2sa1dma1tma_43.log	Energy: -1073005.4426438
S          0.88781       -0.53198        0.84284
O         -0.33299       -0.22786        1.61075
O          1.42419        0.72017        0.18684
O          1.95348       -1.24150        1.54801
O          0.48008       -1.49574       -0.35458
H         -0.40398       -1.20120       -0.74897
S         -3.03956       -0.84437       -0.45513
O         -4.00916       -1.69174       -1.10691
O         -1.77398       -0.58836       -1.21145
O         -3.58463        0.47209        0.01427
O         -2.59963       -1.63372        0.87254
H         -2.64648        1.61107       -0.03045
H         -1.83810       -1.16996        1.28802
N         -2.07255        2.54057       -0.03895
C         -1.04805        2.49287       -1.10942
C         -1.51789        2.76867        1.31634
H         -2.75773        3.26277       -0.25680
H         -0.27440        1.78398       -0.81239
H         -1.52201        2.15082       -2.02890
H         -0.61379        3.48730       -1.23960
H         -0.87335        1.92294        1.56197
H         -0.95279        3.70309        1.33174
H         -2.34361        2.81282        2.02716
N          3.87525        0.08602       -0.50483
C          4.70148        0.08621        0.72703
H          4.71814        1.09619        1.13830
H          4.23138       -0.58789        1.44327
H          5.71658       -0.23742        0.48367
C          3.77133       -1.27465       -1.09379
H          3.40334       -1.95291       -0.32431
H          3.05133       -1.24771       -1.91180
H          4.75441       -1.58535       -1.45604
C          4.33975        1.08191       -1.49407
H          3.66527        1.06840       -2.35094
H          4.32292        2.07087       -1.03478
H          5.35530        0.83736       -1.81449
H          2.87809        0.37346       -0.21384
