33
2sa1ma1eda_66.log	Energy: -1058425.7881118
S         -2.22485       -1.23424        0.04552
O         -1.72734       -2.35986        0.86728
O         -2.96484       -0.21802        0.80076
O         -1.18230       -0.68796       -0.84703
O         -3.27978       -1.88592       -1.01065
H         -4.00010       -2.28626       -0.50505
S          2.82217        0.57922       -0.18802
O          3.16270       -0.57758       -1.01691
O          2.43744        1.79664       -0.90747
O          1.84658        0.22992        0.89433
O          4.14408        0.94687        0.68649
H          4.84175        1.21532        0.07306
N          0.94442       -2.27581        0.12033
H          0.75457       -2.01992       -0.85077
H          1.27507       -1.38985        0.55836
C          1.95812       -3.34434        0.23676
H          2.12829       -3.55085        1.29296
H          1.59581       -4.24390       -0.26039
H          2.87856       -2.99154       -0.22732
H          0.01695       -2.51068        0.52941
H         -1.68309        1.70730        1.58638
H         -0.62727        3.14306        1.64522
H         -2.98661        3.66887        0.96092
H         -1.80602        4.14232       -0.26651
H         -3.33029        1.62645       -0.39478
H         -3.48664        2.93105       -1.40238
H          0.42347        1.23490        0.55602
H         -0.80833        1.15338       -0.55233
C         -1.21344        2.49396        0.99191
C         -2.27039        3.27717        0.22217
N         -0.28683        1.80759        0.05871
N         -2.84801        2.42467       -0.80286
H          0.25151        2.44206       -0.53549
