24
2sa1dma_15.log	Energy: -963524.6386602
S         -1.70000       -0.90225       -0.06587
O         -2.06880        0.32322       -0.79094
O         -0.93391       -1.89451       -0.83888
O         -1.09116       -0.61556        1.25609
O         -3.13389       -1.58443        0.22051
H         -2.98735       -2.50159        0.49121
S          2.08214       -0.48375       -0.04084
O          3.51096       -0.38242        0.02568
O          1.28791        0.63443       -0.54561
O          1.72635       -1.76738       -0.88376
O          1.55441       -0.81929        1.41554
H          0.73645       -1.85115       -0.96949
H          0.55651       -0.78194        1.42947
N         -0.88899        2.61005       -0.04358
C         -0.06010        3.31390       -1.05473
C         -0.28511        2.55233        1.31381
H         -1.80492        3.05541        0.01691
H          0.88502        2.77993       -1.14097
H         -0.58442        3.29207       -2.00996
H          0.10125        4.34394       -0.73318
H          0.69737        2.09418        1.21811
H         -0.20622        3.56386        1.71507
H         -0.91599        1.92534        1.94339
H         -1.11248        1.63589       -0.37169
