27
2sa1tma_28.log	Energy: -988173.4168523
S         -2.43912        0.19563        0.03168
O         -1.79029       -0.13239       -1.38248
O         -1.61460        1.20606        0.68340
O         -3.83498        0.43842       -0.19331
O         -2.30714       -1.15983        0.82873
H         -1.34944       -1.36904        1.01770
S          1.15462       -1.70748       -0.09207
O          1.34814       -3.02682       -0.65867
O          0.29402       -1.63166        1.10867
O          2.63735       -1.21231        0.43104
O          0.82399       -0.61280       -1.04561
H          3.11025       -1.99952        0.73224
H         -0.82183       -0.34913       -1.29678
N          1.65758        2.50967        0.16946
C          1.21359        1.76947        1.39418
H          2.05614        1.71846        2.08406
H          0.36984        2.29823        1.83425
H          0.88999        0.77225        1.10699
C          0.56598        2.64974       -0.84507
H         -0.33183        3.02376       -0.35659
H          0.91192        3.32857       -1.62560
H          0.36843        1.66032       -1.25153
C          2.87436        1.89536       -0.44259
H          3.19391        2.51767       -1.27933
H          3.65784        1.83776        0.31268
H          2.60957        0.89405       -0.78271
H          1.90866        3.45166        0.47157
