30
2sa1a1eda_33.log	Energy: -1033764.6406977
S          2.15048       -1.24859       -0.11536
O          2.47563        0.18738        0.02766
O          2.03599       -1.94638        1.18634
O          1.03380       -1.50927       -1.02582
O          3.42582       -1.92092       -0.86565
H          4.20387       -1.80386       -0.30395
S         -2.59612       -0.22356       -0.17434
O         -2.21225        0.80875       -1.15916
O         -2.74964       -1.57062       -0.72570
O         -1.76663       -0.18132        1.05379
O         -4.05632        0.23235        0.38407
H         -4.67906        0.20677       -0.35506
H         -0.78610        2.93584        0.60185
H          0.05971        1.56926        1.33867
H          1.22577        3.74269        1.87204
H          2.25061        2.65843        0.91980
H          0.86580        5.03276       -0.09252
H          2.42758        4.58787       -0.29475
H         -0.56530        1.31625       -1.04115
H          0.60058        2.51436       -1.37419
C          0.15265        2.37589        0.61185
C          1.34903        3.27724        0.88589
N          0.32236        1.76656       -0.73068
N          1.48169        4.23589       -0.21375
H          1.09242        1.07150       -0.68230
N         -0.60986       -2.64885        0.97844
H         -1.08673       -1.74408        1.20809
H          0.39133       -2.58608        1.26100
H         -1.09866       -3.43569        1.39352
H         -0.63203       -2.70519       -0.04446
