31
2sa1a1tma_31.log	Energy: -1023676.5481354
S          2.79700        0.39485       -0.05552
O          4.16252        0.84386        0.00021
O          1.94783        0.46349        1.12441
O          2.00680        1.31681       -1.12941
O          2.76081       -1.01587       -0.68797
H          2.55220        1.40220       -1.92455
H          1.88459       -1.55220       -0.48276
S         -0.56785       -1.65256        0.12451
O         -1.72248       -2.51477        0.28390
O          0.72234       -2.34391       -0.12947
O         -0.75636       -0.52836       -0.83256
O         -0.39659       -0.93626        1.57468
H         -1.54668        0.73915       -0.23845
H          0.48516       -0.50807        1.58810
N         -3.91008       -0.78244       -1.11431
H         -3.48549       -0.84159       -2.03574
H         -4.86330       -1.11956       -1.20868
H         -3.40339       -1.46463       -0.54833
N         -1.92282        1.64658        0.15681
C         -0.74169        2.42263        0.60747
H         -0.24322        1.87726        1.40772
H         -0.04586        2.52374       -0.22561
H         -1.07051        3.40221        0.96212
C         -2.65012        2.32407       -0.94293
H         -1.95205        2.50870       -1.76035
H         -3.44741        1.65485       -1.26949
H         -3.05591        3.26971       -0.57543
C         -2.82967        1.29864        1.28051
H         -3.65147        0.71151        0.86940
H         -2.26882        0.69969        1.99828
H         -3.19393        2.21967        1.74193
