33
2sa1ma1eda_48.log	Energy: -1058428.0009486
S         -0.77319       -1.87085        0.61990
O         -1.65365       -0.95377        1.36865
O         -0.89954       -1.82781       -0.83292
O          0.63913       -1.79331        1.09075
O         -1.27178       -3.36618        1.00572
H         -1.28574       -3.44232        1.96976
S          1.93260        1.65018        0.30303
O          3.17395        2.33112        0.00932
O          0.93598        2.40442        1.09622
O          1.26110        1.01262       -0.87828
O          2.39105        0.37977        1.21499
H          1.85664       -0.44254       -1.21643
H          1.62509       -0.20114        1.40275
N          2.21087       -1.44448       -1.18255
H          3.20974       -1.40238       -0.98785
C          1.89067       -2.20765       -2.40809
H          2.28039       -3.22207       -2.32068
H          0.80586       -2.23657       -2.50254
H          2.33665       -1.70932       -3.26863
H          1.73349       -1.83084       -0.34539
H         -1.59830        2.46247       -1.43175
H         -1.12478        0.75910       -1.31372
H         -3.45211        0.97306       -2.24314
H         -3.43545        0.12271       -0.69659
H         -4.30819        2.88693       -1.11805
H         -5.06214        1.68331       -0.30774
H         -0.64951        2.06867        0.72445
H         -2.35103        2.26567        0.87793
C         -1.82688        1.50840       -0.94968
C         -3.27578        1.09768       -1.16727
N         -1.60038        1.67604        0.50791
N         -4.15528        2.07790       -0.52533
H         -1.65565        0.74428        0.96527
