24
2sa1dma_23.log	Energy: -963517.4232928
S          0.89252       -0.45557        0.31568
O          1.29583        0.19523       -0.93616
O         -0.20141       -1.43910        0.16854
O          2.05646       -1.01020        1.05820
O          0.35977        0.68386        1.31122
H         -0.52499        0.98267        1.00232
S         -3.10044        0.28868       -0.24725
O         -4.21159        0.72109       -1.05183
O         -2.11844        1.23983        0.24129
O         -3.66357       -0.39971        1.09712
O         -2.40110       -0.89079       -0.99156
H         -4.42600       -0.95204        0.87200
H         -1.50384       -1.12479       -0.56074
N          4.20525        0.08933        0.07619
C          4.36852       -0.41612       -1.30985
C          3.98332        1.55549        0.15789
H          3.34597       -0.39888        0.51438
H          5.22020        0.07532       -1.78339
H          4.52528       -1.49414       -1.27085
H          3.44237       -0.20221       -1.84412
H          4.84491        2.08146       -0.25666
H          3.07828        1.78216       -0.40631
H          3.83490        1.82676        1.20311
H          5.01421       -0.16933        0.63925
