33
2sa1ma1eda_197.log	Energy: -1058403.5056835
S          1.11670       -1.87665        0.01788
O          1.35789       -1.23057       -1.29442
O          2.01632       -1.49465        1.08772
O         -0.33143       -1.79415        0.38196
O          1.41429       -3.44955       -0.21466
H          0.90987       -3.75131       -0.98255
S         -2.71790        0.44317       -0.67183
O         -4.02407        0.61181       -1.25206
O         -1.69162        1.44745       -0.88523
O         -2.84974        0.38319        0.93809
O         -2.20638       -0.97716       -1.03536
H         -3.62961       -0.14242        1.16922
H         -1.37584       -1.28552       -0.48792
N          0.09188        0.56708        2.40835
H         -0.63386        0.02872        1.94551
C         -0.44706        1.26511        3.57026
H         -0.88773        0.60750        4.33460
H          0.34573        1.84911        4.04823
H         -1.21963        1.96626        3.24174
H          0.80793       -0.10481        2.66883
H          1.49173        3.08133       -0.03719
H          1.16426        1.53497        0.79306
H          3.62615        2.09675        0.82340
H          3.30001        0.60884       -0.06160
H          4.02691        3.18896       -1.22966
H          4.56379        1.69321       -1.61116
H          0.06866        1.66075       -1.36412
H          1.59007        1.87589       -2.10978
C          1.67693        2.00312       -0.05911
C          3.16649        1.69452       -0.08756
N          1.07882        1.47696       -1.31805
N          3.74591        2.21944       -1.32885
H          1.19428        0.43579       -1.35736
