34
2sa1ma1tma_04.log	Energy: -1048355.5651931
S         -1.87984        1.30082       -0.30494
O         -2.88573        0.36698        0.25208
O         -0.96047        1.86894        0.67813
O         -1.23081        0.75824       -1.51759
O         -2.72609        2.59330       -0.80907
H         -3.35744        2.29732       -1.47884
S          1.17028       -1.71218       -0.59353
O          0.13341       -2.70844       -0.92799
O          0.80253       -0.99687        0.68519
O          2.54942       -2.16104       -0.63423
O          1.10032       -0.54538       -1.70645
H          0.20157       -0.12633       -1.69024
N         -1.76067       -2.01970        0.90959
H         -1.33093       -2.44716        0.06371
H         -0.92689       -1.66158        1.39535
C         -2.56239       -2.96386        1.70772
H         -2.93669       -2.45832        2.59775
H         -3.40366       -3.31101        1.10845
H         -1.94333       -3.81374        1.99525
H         -2.29690       -1.16863        0.61869
N          2.07809        1.41366        0.68316
C          1.82804        2.08258        1.98368
H          0.81920        2.49235        1.96927
H          1.91505        1.33866        2.77621
H          2.57093        2.87082        2.12553
C          3.41213        0.75900        0.64600
H          3.46187        0.02133        1.44616
H          3.52619        0.24301       -0.30695
H          4.18305        1.52237        0.77188
C          1.89677        2.34318       -0.46215
H          2.00632        1.77270       -1.38386
H          0.89471        2.76453       -0.40278
H          2.65768        3.12461       -0.39874
H          1.38238        0.63176        0.60733
