37
2sa1dma1tma_57.log	Energy: -1072995.5564517
S          0.09639       -1.60817       -0.36262
O         -1.03740       -2.54874       -0.40342
O          1.42322       -2.26063       -0.45742
O         -0.05334       -0.44886       -1.24475
O         -0.01155       -1.03788        1.16115
H         -2.64117        0.17086        0.08740
H          0.75969       -0.45161        1.31894
S          3.32915        0.55220        0.25757
O          4.62812        1.05626        0.61610
O          2.25116        0.52847        1.23272
O          2.73211        1.45741       -0.93497
O          3.51864       -0.84424       -0.39921
H          3.42167        1.59666       -1.59979
H          2.64862       -1.39853       -0.45367
N         -3.04866       -0.81206        0.25428
C         -4.27404       -0.95530       -0.55197
C         -3.24769       -0.99051        1.70687
H         -2.33776       -1.51238       -0.06551
H         -5.00394       -0.20451       -0.24190
H         -4.02078       -0.81128       -1.60271
H         -4.69417       -1.95305       -0.41323
H         -3.93533       -0.22583        2.07473
H         -3.65898       -1.98255        1.90083
H         -2.27551       -0.89728        2.19081
N         -2.26632        1.81904       -0.13238
C         -2.16743        2.01544       -1.58099
H         -1.39324        1.35425       -1.97486
H         -3.12446        1.76789       -2.05192
H         -1.92104        3.06009       -1.83011
C         -3.34662        2.62275        0.43304
H         -4.29875        2.35336       -0.03557
H         -3.42087        2.44060        1.50944
H         -3.18159        3.70126        0.27758
C         -0.98872        2.13729        0.51458
H         -1.04400        1.89396        1.57924
H         -0.19560        1.54539        0.05780
H         -0.74718        3.20693        0.40923
