28
2sa1a1dma_52.log	Energy: -999019.4768786
S          1.25380       -0.70590        0.10451
O          0.03997       -1.49067       -0.17663
O          2.32753       -1.45540        0.78304
O          1.75952        0.03281       -1.08228
O          0.85654        0.41145        1.19175
H          0.02184        0.85714        0.90840
S         -2.61433        0.69073       -0.19168
O         -3.70449        1.35487       -0.87012
O         -1.45808        1.46597        0.23896
O         -3.14521       -0.04951        1.08699
O         -2.14581       -0.47371       -1.14373
H         -4.04794       -0.48978        0.85822
H         -1.28804       -0.88511       -0.80964
N          4.24914        0.19687       -0.14014
C          5.50070       -0.11144       -0.85545
C          4.30718        1.35741        0.77723
H          3.43754        0.32798       -0.79383
H          6.28553       -0.33800       -0.13228
H          5.33235       -0.97376       -1.50041
H          5.79273        0.74878       -1.45953
H          5.06287        1.17576        1.54276
H          4.55804        2.25331        0.20777
H          3.32549        1.47191        1.23949
H          3.88306       -0.62507        0.38567
N         -5.45187       -1.02492        0.26875
H         -6.22297       -1.08079        0.92558
H         -5.36362       -1.92164       -0.19863
H         -5.67614       -0.32407       -0.43397
