28
2sa1a1dma_40.log	Energy: -999023.4058534
S          2.20433        0.07375       -0.01997
O          2.21151        1.41210       -0.63660
O          1.33504        0.00860        1.17450
O          1.96825       -1.01764       -0.98363
O          3.67558       -0.17333        0.58986
H          4.30515       -0.25684       -0.14018
S         -1.28289       -1.79054       -0.05266
O         -2.42714       -2.64844        0.03432
O         -1.48738       -0.38462       -0.42769
O         -0.53279       -1.82166        1.33188
O         -0.26598       -2.43014       -1.06715
H          0.21558       -1.15357        1.34448
H          0.58530       -1.90612       -1.10403
N         -0.40955        2.20988       -0.17917
C         -0.59241        2.66770        1.21814
C         -1.01770        3.10093       -1.19225
H          0.60471        2.08383       -0.37265
H         -1.66305        2.73403        1.41222
H         -0.11478        1.94137        1.87525
H         -0.11689        3.64284        1.33325
H         -2.08586        3.16781       -0.98282
H         -0.54456        4.08177       -1.12845
H         -0.84832        2.67151       -2.17978
H         -0.80596        1.25863       -0.27248
N         -3.67952        1.64094        0.23253
H         -4.12766        1.56053        1.14020
H         -3.25570        0.73709        0.02884
H         -4.42356        1.77924       -0.44450
