36
2sa1dma1eda_82.log	Energy: -1083090.7315879
S         -0.08105       -1.93904       -0.78598
O          0.03042       -3.32169       -1.17868
O         -1.31339       -1.23034       -1.27548
O          0.06027       -1.68409        0.68186
O          1.14280       -1.17512       -1.49062
H          1.04864       -0.52377        1.28166
H          1.04865       -0.19864       -1.34657
S         -0.36033        2.06528       -0.41252
O         -0.40343        3.49629       -0.58179
O          0.94102        1.41174       -0.78111
O         -0.76896        1.57123        0.93874
O         -1.43852        1.46734       -1.44917
H         -2.34087       -0.82747        0.05989
H         -1.32443        0.48768       -1.53406
N         -2.73401       -0.30735        0.87473
C         -2.86420       -1.22126        2.02760
C         -3.97932        0.38319        0.47595
H         -1.99337        0.41306        1.05170
H         -3.62163       -1.97454        1.80514
H         -1.89946       -1.70457        2.18202
H         -3.15857       -0.65086        2.91012
H         -4.72245       -0.35644        0.17484
H         -4.35181        0.96608        1.31944
H         -3.74723        1.04734       -0.35704
H          3.64033        0.36736        2.45648
H          2.99790       -1.29586        2.30070
H          4.75906       -0.87287        0.63406
H          3.21425       -1.11366       -0.18536
H          4.79940        0.98265       -0.64556
H          3.17493        1.17578       -0.71896
H          1.31136        0.60792        2.48840
H          1.67383        0.95982        0.91812
C          3.08627       -0.32093        1.81566
C          3.77663       -0.42569        0.45943
N          1.70969        0.21764        1.63722
N          3.94368        0.90632       -0.11208
