37
2sa1dma1tma_12.log	Energy: -1073017.0276483
S         -0.70897       -1.39090       -0.30591
O         -0.51447       -0.59093        0.93585
O          0.34928       -2.39390       -0.49246
O         -2.08865       -1.92146       -0.39515
O         -0.65326       -0.36564       -1.52381
H          0.18794        0.19816       -1.47191
S          1.70878        1.90759       -0.04860
O          1.50222        0.98759       -1.21600
O          2.62847        1.24720        0.91757
O          2.01220        3.27874       -0.38515
O          0.26914        1.96165        0.69553
H          0.03036        1.03397        0.93043
N          2.82119       -1.35838        0.29465
C          3.30024       -2.10548        1.47361
C          3.73620       -1.37564       -0.86623
H          1.90033       -1.74414        0.00146
H          4.23059       -1.65856        1.82725
H          2.54188       -2.03977        2.25365
H          3.46403       -3.15039        1.20507
H          4.69581       -0.95121       -0.56706
H          3.86675       -2.40168       -1.21399
H          3.29189       -0.75723       -1.64622
H          2.67573       -0.34742        0.56785
N         -3.61065        0.20736        0.19821
C         -3.02875        1.40940       -0.46113
H         -2.03284        1.59696       -0.05953
H         -2.94543        1.21534       -1.52976
H         -3.68258        2.26346       -0.27030
C         -4.97517       -0.08392       -0.29980
H         -4.93479       -0.20011       -1.38300
H         -5.32588       -1.01258        0.15131
H         -5.64295        0.73849       -0.03425
C         -3.56223        0.32109        1.67834
H         -3.99743       -0.57854        2.11404
H         -2.51620        0.39562        1.97504
H         -4.12352        1.20463        1.98958
H         -3.01557       -0.63360       -0.05738
