26
2sa1eda_34.log	Energy: -998258.2789770
S         -0.57602        2.07189       -0.09347
O         -0.61008        3.43393       -0.58023
O         -1.70131        1.54765        0.66583
O         -0.11698        1.06053       -1.11273
O          0.68755        2.05030        1.00861
H          1.21763        2.84746        0.87190
S          2.29378       -1.03472       -0.00979
O          3.63206       -1.28125        0.44110
O          1.53825       -2.11698       -0.63149
O          1.35153       -0.54987        1.19036
O          2.33044        0.22825       -0.94749
H          1.33492        0.43301        1.27943
H          1.40277        0.57340       -1.14209
H         -1.68850       -2.65575        1.03229
H         -1.30845       -0.96160        1.42998
H         -3.79735       -1.43869        1.55330
H         -3.37569       -0.18593        0.38285
H         -4.17869       -2.93157       -0.24821
H         -4.66327       -1.52937       -0.93598
H         -0.27445       -1.93003       -0.67243
H         -1.86303       -1.83852       -1.29440
C         -1.82368       -1.61477        0.72733
C         -3.30005       -1.25586        0.59353
N         -1.19359       -1.46039       -0.61049
N         -3.86907       -2.00717       -0.52822
H         -1.00078       -0.46088       -0.83027
