21
2sa1ma_22.log	Energy: -938854.2296142
S          2.12500       -0.22663        0.12351
O          3.53359       -0.27954        0.40640
O          1.19836        0.34234        1.09578
O          1.89546        0.71360       -1.17227
O          1.65312       -1.62299       -0.33972
H          2.53306        0.46757       -1.85815
H          0.61677       -1.76147       -0.27907
S         -1.77920       -0.90148       -0.09221
O         -0.79610       -2.01299       -0.09763
O         -3.17031       -1.27670       -0.05282
O         -1.52117       -0.11109        1.32432
O         -1.41665        0.11772       -1.12616
H         -0.55141       -0.06273        1.45751
H         -1.55919        1.52373       -0.61071
N         -1.62877        2.44336       -0.03449
H         -2.36390        3.03309       -0.41934
C         -0.31600        3.13461        0.02611
H         -0.39595        4.03597        0.63367
H          0.40685        2.44226        0.45693
H         -0.01057        3.38550       -0.98864
H         -1.92134        2.11174        0.88856
