27
2sa1tma_13.log	Energy: -988182.5453643
S          1.45790       -1.57631       -0.05356
O          0.69712       -0.56218       -0.93462
O          2.25959       -2.49068       -0.82682
O          2.10171       -0.81813        1.02274
O          0.28680       -2.46890        0.58596
H         -0.34651       -1.89689        1.06263
S         -2.26185        0.06340        0.05647
O         -2.15215        1.50896       -0.06796
O         -1.71430       -0.56142        1.24546
O         -3.80659       -0.33360        0.02124
O         -1.75096       -0.63530       -1.23149
H         -4.27048        0.22448       -0.61983
H         -0.69745       -0.69193       -1.19548
N          1.36199        1.91369       -0.03226
C          2.84341        1.97296       -0.12306
H          3.25396        1.21130        0.53890
H          3.13764        1.75811       -1.15093
H          3.17774        2.97223        0.16455
C          0.70683        2.86572       -0.96303
H          1.04427        2.65107       -1.97766
H         -0.37238        2.72882       -0.89226
H          0.98230        3.88553       -0.68528
C          0.88897        2.08605        1.36712
H         -0.19949        2.02933        1.37425
H          1.30829        1.27572        1.96274
H          1.22207        3.05937        1.73469
H          1.08444        0.94516       -0.33933
