30
2sa1a1eda_182.log	Energy: -1033747.0055857
S          2.66433       -0.49788       -0.13508
O          2.86713       -0.59208        1.28693
O          1.83570       -1.50576       -0.79566
O          2.23761        0.92130       -0.59267
O          4.11728       -0.57101       -0.79965
H          4.02926       -0.61584       -1.76263
S         -1.16650        1.81526       -0.12603
O         -2.22510        1.66463        0.86169
O         -1.23335        0.92897       -1.29891
O         -1.32245        3.28142       -0.79539
O          0.19336        1.80583        0.50327
H         -1.45199        3.92459       -0.08485
H          1.35719        1.28112       -0.14883
H         -1.43653       -3.09090        0.70358
H         -1.16356       -1.42172        1.26029
H         -3.62313       -2.00770        1.26147
H         -3.26512       -0.69877        0.13911
H         -3.90316       -3.46031       -0.57604
H         -4.42208       -2.06845       -1.25818
H          0.04204       -1.91684       -0.81015
H         -1.45312       -2.26949       -1.55183
C         -1.62858       -2.03724        0.47934
C         -3.11785       -1.76811        0.31822
N         -0.97091       -1.73630       -0.82259
N         -3.62086       -2.52150       -0.83593
H         -1.08009       -0.72012       -1.05147
N          0.06685       -0.35829        2.73449
H         -0.23802       -0.33701        3.70158
H         -0.02369        0.58318        2.35957
H          1.05826       -0.58148        2.72186
