33
2sa1ma1eda_61.log	Energy: -1058426.4412048
S          1.35611        1.74209       -0.48037
O          2.01028        0.52796       -1.05031
O          0.30485        2.28772       -1.32930
O          0.99814        1.55241        0.93828
O          2.54068        2.85295       -0.39204
H          2.74444        3.14588       -1.29101
S         -0.41097       -2.27262       -0.44497
O         -0.68467       -3.68225       -0.59793
O         -1.46480       -1.33362       -0.90598
O          0.04544       -1.85758        0.92363
O          0.87699       -2.00074       -1.39950
H          1.59295       -1.54487        1.05873
H          1.03897       -1.03809       -1.48782
N          2.60981       -1.23335        0.99219
H          3.16145       -2.03951        0.70628
C          3.09036       -0.62350        2.25096
H          4.13198       -0.32151        2.13968
H          2.47354        0.25308        2.44693
H          2.99394       -1.34583        3.06140
H          2.60306       -0.54403        0.21184
H         -2.54173        2.64953        0.58128
H         -2.04574        1.85685       -0.92499
H         -4.55342        1.81153       -0.68510
H         -3.86982        0.18177       -0.65851
H         -4.89618        1.64585        1.65361
H         -5.15382        0.09012        1.21475
H         -0.77354        1.09238        1.04144
H         -2.23334        0.46418        1.64709
C         -2.53254        1.70060        0.03806
C         -3.93452        1.12027       -0.09937
N         -1.71430        0.73244        0.80645
N         -4.46286        0.82996        1.23538
H         -1.57860       -0.13117        0.21896
