31
2sa1ma1dma_66.log	Energy: -1023676.8280799
S          2.74224        0.33017        0.33789
O          4.07099        0.77580        0.65856
O          1.69966        0.34063        1.35429
O          2.13197        1.30161       -0.80561
O          2.83824       -1.04827       -0.36130
H          2.73123        1.31160       -1.56568
H          1.94615       -1.59574       -0.36917
S         -0.53604       -1.59348       -0.42634
O         -1.76208       -2.35109       -0.60226
O          0.71559       -2.38826       -0.31666
O         -0.35287       -0.45762       -1.36223
O         -0.72879       -0.89829        1.03864
H         -0.90875        0.99607       -0.73427
H          0.13982       -0.53296        1.31266
N         -3.68092        0.00884        0.12142
H         -4.56340        0.14163       -0.36344
C         -3.91325       -0.15604        1.56454
H         -4.61035       -0.96823        1.79876
H         -2.95747       -0.37760        2.04260
H         -4.31011        0.77368        1.98252
H         -3.26951       -0.85147       -0.24941
N         -1.56480        1.74136       -0.40344
C         -1.84827        2.64856       -1.52970
C         -1.03397        2.40806        0.80061
H         -2.44316        1.17217       -0.16862
H         -0.93542        3.17529       -1.81304
H         -2.20178        2.05547       -2.37376
H         -2.61357        3.36965       -1.23626
H         -0.06400        2.85335        0.57551
H         -1.73609        3.17777        1.12729
H         -0.91149        1.66134        1.58346
