36
2sa1dma1eda_93.log	Energy: -1083086.3505489
S          1.34769        1.97569       -0.26662
O          0.64255        2.39434        0.95392
O          2.50417        1.09739       -0.06474
O          0.42139        1.48199       -1.32289
O          1.93215        3.38311       -0.83189
H          2.48317        3.19192       -1.60283
S         -0.61564       -1.76140       -0.69876
O         -0.28934       -3.17911       -0.64213
O         -1.97516       -1.37796       -1.09878
O         -0.24697       -1.04151        0.58368
O          0.40462       -1.16849       -1.78884
H          1.23012       -1.46885        0.95419
H          0.42984       -0.18068       -1.71101
N          2.17713       -1.89963        1.19577
C          2.84155       -1.07019        2.22924
C          2.96771       -2.06950       -0.05191
H          1.94585       -2.81983        1.57021
H          2.99537       -0.07797        1.80364
H          2.18777       -1.00451        3.09935
H          3.79372       -1.52645        2.50583
H          3.11687       -1.08089       -0.48459
H          3.92248       -2.53972        0.19133
H          2.38938       -2.68887       -0.73700
H         -3.25286        1.82428        1.90098
H         -3.32854        2.68469        0.34152
H         -5.20222        1.06808        0.60684
H         -4.17877        0.63098       -0.76315
H         -4.83062       -1.07143        1.20938
H         -3.42853       -1.20419        0.35615
H         -1.05222        1.85400        0.85727
H         -1.61684        0.29992        0.87103
C         -3.18803        1.71077        0.81716
C         -4.21275        0.68852        0.33451
N         -1.81803        1.24565        0.50494
N         -3.96936       -0.59850        0.97058
H         -1.64323        1.17254       -0.50276
