33
2sa1ma1eda_98.log	Energy: -1058423.6704242
S         -1.05736       -1.58185        0.32082
O         -2.16091       -2.49523        0.09337
O         -0.52630       -0.91704       -0.90594
O         -1.43811       -0.48872        1.30560
O          0.11773       -2.39365        0.97320
H         -2.85496        0.16354        0.56898
H          0.96248       -1.83597        0.97770
S          2.69682       -0.15556       -0.29520
O          4.13313       -0.18444       -0.41901
O          2.13262       -0.78106        0.94327
O          2.07496        1.20718       -0.43480
O          2.13380       -1.01477       -1.52586
H          1.15145        1.39457        0.77527
H          1.15352       -1.06453       -1.44673
N         -3.39257        0.72633       -0.13602
H         -4.14991        1.22151        0.32845
C         -3.88576       -0.12927       -1.24703
H         -4.45418        0.48499       -1.94575
H         -3.01941       -0.56934       -1.73980
H         -4.50295       -0.93067       -0.84462
H         -2.64821        1.40670       -0.49295
H         -1.36851        2.73498        1.61781
H          0.15550        3.63643        1.69069
H         -0.92530        4.03128       -0.44714
H          0.62592        3.20144       -0.66939
H         -1.14984        2.29419       -2.02181
H         -0.58397        1.15400       -1.02475
H          0.78392        1.54835        2.42708
H         -0.27168        0.71949        1.44497
C         -0.36089        2.80995        1.19791
C         -0.39983        3.08254       -0.30206
N          0.36706        1.55134        1.49895
N         -1.11617        2.03235       -1.04002
