36
2sa1dma1eda_183.log	Energy: -1083071.7978011
S         -0.07418       -1.80556        0.08152
O         -1.16853       -2.74825        0.18680
O          1.24233       -2.42087       -0.26648
O         -0.33120       -0.61562       -0.76576
O          0.11225       -1.22276        1.58436
H         -0.67483        0.83838       -0.02538
H          0.91284       -0.65970        1.58024
S          3.14751        0.43305       -0.10272
O          4.48134        0.93027        0.11631
O          2.13346        0.58288        0.93656
O          2.50651        1.25873       -1.34252
O          3.21446       -1.01384       -0.61190
H          3.17150        1.32844       -2.04226
H          2.31431       -1.59936       -0.48351
N         -0.99785        1.77154        0.32348
C         -0.37713        2.82300       -0.50576
C         -0.71165        1.89706        1.76839
H         -2.05270        1.77445        0.20063
H          0.70589        2.77525       -0.39012
H         -0.63227        2.64054       -1.54996
H         -0.75301        3.79982       -0.19479
H          0.36795        1.89420        1.92138
H         -1.14438        2.82863        2.13922
H         -1.15554        1.04363        2.28157
H         -5.44083        0.79856       -0.86151
H         -4.12829        1.47135       -1.84310
H         -4.14180       -1.02835       -1.85308
H         -2.63382       -0.37555       -1.21732
H         -4.72092       -1.65646        0.34389
H         -3.09066       -1.84112        0.39869
H         -4.34758        2.45634        0.43089
H         -3.91884        0.98061        1.02509
C         -4.34844        0.90487       -0.93221
C         -3.70255       -0.47939       -1.00840
N         -3.80620        1.62027        0.23524
N         -3.83836       -1.16142        0.27665
