33
2sa1ma1eda_91.log	Energy: -1058422.2739583
S          1.13155        1.88405       -0.49051
O          0.17804        2.86780       -0.97462
O          0.66796        1.16027        0.73845
O          1.30654        0.72052       -1.59738
O          2.53375        2.32761       -0.31522
H          3.17286        0.87320        0.20257
S         -0.22816       -2.33716       -0.30343
O         -0.33765       -3.68447       -0.83628
O         -0.88276       -2.08532        0.98996
O          1.41679       -2.20314        0.04115
O         -0.46774       -1.24122       -1.26591
H          1.79684       -3.03542       -0.26993
H          0.58273        0.04796       -1.52823
N          3.31486       -0.09703        0.60682
H          2.54401       -0.69232        0.25588
C          3.26973       -0.03823        2.08826
H          3.34884       -1.04481        2.49793
H          4.08731        0.58708        2.44569
H          2.31235        0.40688        2.35471
H          4.19297       -0.47637        0.25961
H         -2.42978        1.93209       -0.49277
H         -2.22005        0.28871       -1.12419
H         -4.65767        0.91401       -1.00660
H         -4.28118       -0.46087        0.03614
H         -4.70949        2.28862        0.95065
H         -5.42975        0.91512        1.47045
H         -0.92917        0.89458        0.93423
H         -2.45282        0.83397        1.73357
C         -2.63236        0.87481       -0.30267
C         -4.11868        0.61350       -0.09909
N         -1.90458        0.49958        0.93538
N         -4.56155        1.29841        1.11696
H         -1.75506       -0.52626        1.00904
