36
2sa1dma1eda_178.log	Energy: -1083072.2526953
S          1.60928       -1.26043       -0.06382
O          2.85964       -1.96571       -0.32192
O          0.37034       -2.03713       -0.22185
O          1.63213       -0.53785        1.25346
O          1.58831       -0.09563       -1.17571
H          2.90956        0.12392        1.51241
H          0.70218        0.35835       -1.18040
S         -2.05782        0.48324       -0.72288
O         -3.27792        0.88967       -1.41913
O         -0.79867        1.06021       -1.21499
O         -2.19728        0.66399        0.76544
O         -1.99255       -1.09932       -0.95335
H         -3.57489        0.36865        1.13359
H         -1.11282       -1.46057       -0.65201
N         -4.64544        0.15551        1.31410
C         -5.00636       -1.06369        0.54929
C         -5.41768        1.35575        0.91710
H         -4.75465       -0.01859        2.31164
H         -4.83631       -0.85495       -0.50738
H         -4.34946       -1.87705        0.85670
H         -6.05224       -1.31906        0.73212
H         -5.18650        1.55728       -0.12972
H         -6.48592        1.17662        1.05629
H         -5.09214        2.19914        1.52659
H          5.91361        0.39054        1.24069
H          4.84561       -0.94077        0.68158
H          5.58092        0.60945       -1.19434
H          3.83363        0.45985       -1.00676
H          5.43676        2.79957       -0.37319
H          3.90537        2.69285       -0.94867
H          4.10417        0.44828        2.70275
H          3.78400        1.62402        1.54961
C          4.94351        0.13892        0.80174
C          4.73848        0.85057       -0.53664
N          3.87704        0.61267        1.72573
N          4.56640        2.28643       -0.29823
