31
2sa1ma1dma_48.log	Energy: -1023685.8279023
S         -2.83662       -0.71055       -0.29587
O         -3.92835       -1.59245       -0.62809
O         -1.53367       -0.99871       -0.98032
O         -3.13006        0.74899       -0.43818
O         -2.55412       -0.95103        1.27322
H         -1.88034        1.55459       -0.76408
H         -1.78317       -0.41006        1.54427
S          1.01239       -0.04781        0.85322
O          2.21511       -0.27657        1.64673
O         -0.15863        0.52470        1.53248
O          1.34467        0.79281       -0.37774
O          0.61668       -1.46935        0.28099
H          2.73363        0.25883       -0.87450
H         -0.26614       -1.38822       -0.22726
N         -1.03565        2.20565       -0.93799
H         -0.16818        1.64017       -0.86462
C         -1.03272        3.28352        0.07636
H         -0.21735        3.98106       -0.11837
H         -1.99073        3.80235        0.04806
H         -0.89352        2.81250        1.04863
H         -1.11367        2.56999       -1.88436
N          3.70012       -0.15913       -1.09565
C          3.62386       -1.63793       -0.94500
C          4.69182        0.47796       -0.19214
H          3.91229        0.07254       -2.06510
H          3.38024       -1.85323        0.09508
H          2.82442       -2.01465       -1.58181
H          4.58281       -2.07892       -1.22170
H          4.35709        0.30114        0.83040
H          5.67717        0.04200       -0.36447
H          4.71097        1.54971       -0.39029
