33
2sa1ma1eda_169.log	Energy: -1058411.2837951
S         -2.49088       -0.17286       -0.44980
O         -3.71218       -0.27684       -1.27992
O         -1.36183        0.50116       -1.10558
O         -2.81064        0.42080        0.88532
O         -2.07782       -1.68720       -0.19779
H         -4.40203        0.41784        1.06854
H         -1.15633       -1.73830        0.18009
S          1.53495       -0.92428        0.30334
O          2.77452       -1.69956       -0.00225
O          0.40574       -1.77551        0.70198
O          1.82623        0.18799        1.22130
O          1.17355       -0.28740       -1.12420
H          4.45467        0.46591        1.33216
H          0.23471        0.04281       -1.12435
N         -5.39451        0.35657        0.67329
H         -5.14277       -0.06811       -0.24781
C         -5.99311        1.69636        0.50265
H         -6.95552        1.61295       -0.00223
H         -6.11963        2.16700        1.47736
H         -5.30957        2.28991       -0.10376
H         -5.97152       -0.27618        1.22092
H          3.12776        1.16322       -1.16379
H          4.35158        2.38255       -1.51947
H          5.23107       -0.03632       -1.43836
H          6.09050        1.12301       -0.38345
H          3.97512       -0.87306        0.38896
H          5.58526       -0.71858        0.97525
H          3.82308        3.30954        0.47893
H          2.81227        2.04722        0.84801
C          4.01829        1.66113       -0.76779
C          5.13574        0.62702       -0.57649
N          3.73830        2.30342        0.51413
N          4.79338       -0.19309        0.61474
