26
2sa1eda_66.log	Energy: -998251.7549870
S          3.35659       -0.24609        0.06202
O          4.77979       -0.21680        0.27070
O          2.74605        0.46316       -1.04702
O          2.90485       -1.77743       -0.16231
O          2.66450        0.14272        1.40357
H          3.44434       -2.34393        0.40758
H          1.68219        0.39391        1.27093
S         -0.59568        0.77238       -0.11759
O          0.24052        0.84583        1.10032
O         -1.86271        1.49415       -0.03400
O          0.20919        1.50661       -1.28527
O         -0.78466       -0.64481       -0.55665
H          1.12998        1.16227       -1.30555
H         -2.24359       -0.86909       -1.00629
H         -4.91946       -2.00349       -0.28092
H         -3.31036       -2.50374        0.31283
H         -4.63584       -0.98831        1.92310
H         -3.02626       -0.39482        1.51016
H         -5.47313        0.89355        0.94415
H         -3.92923        1.40271        0.61128
H         -3.44574       -1.52215       -2.03716
H         -3.73245       -0.07150       -1.23785
C         -3.92544       -1.65458        0.00976
C         -4.02501       -0.58776        1.10877
N         -3.29867       -1.00775       -1.17260
N         -4.58598        0.63211        0.53704
