31
2sa1ma1dma_07.log	Energy: -1023694.3436953
S         -2.46459       -0.18469       -0.15694
O         -2.29562        1.14429       -0.78747
O         -2.29631       -1.30085       -1.11184
O         -1.70220       -0.34947        1.08349
O         -4.01295       -0.24275        0.33153
H         -4.57893       -0.15909       -0.44788
S          2.46528       -0.18918       -0.15814
O          2.30188       -1.30494       -1.11379
O          2.29905        1.14027       -0.78826
O          1.69686       -0.35430        1.07902
O          4.01099       -0.24696        0.33886
H          4.58117       -0.16278       -0.43743
N          0.00061       -2.42902       -0.03278
H          0.01131       -1.71711        0.71079
H         -0.84851       -2.21321       -0.59250
C         -0.01135       -3.79547        0.52378
H         -0.02285       -4.51699       -0.29258
H          0.88237       -3.93945        1.13026
H         -0.90262       -3.91986        1.13811
H          0.84886       -2.22857       -0.59834
N          0.00242        2.39785        0.05576
C          0.00097        3.74267       -0.55438
C          0.00426        2.39484        1.53711
H         -0.84108        1.88020       -0.27907
H          0.89621        4.28113       -0.24027
H         -0.00163        3.63354       -1.63882
H         -0.89292        4.28093       -0.23611
H          0.90078        2.90586        1.89101
H         -0.89323        2.90255        1.89326
H          0.00663        1.35806        1.86966
H          0.84523        1.88051       -0.28104
