31
2sa1ma1dma_24.log	Energy: -1023693.8501967
S          2.09002        0.49827        0.57512
O          1.28470        1.59760        1.16062
O          3.51690        0.55141        0.79129
O          1.62016       -0.86224        1.32784
O          1.67537        0.29275       -0.85557
H          1.19451       -1.16563       -1.27919
S         -2.11828       -0.98649        0.21483
O         -3.35275       -1.74386        0.22310
O         -1.79448       -0.24978       -1.02277
O         -2.28527        0.24349        1.28934
O         -0.93364       -1.74735        0.71520
H         -2.59370       -0.12122        2.13007
H          0.64401       -0.96137        1.29721
N          0.83054       -2.16116       -1.35828
H          0.09092       -2.20996       -0.62694
C          1.91905       -3.13160       -1.10184
H          1.51947       -4.14555       -1.11281
H          2.68914       -3.01978       -1.86463
H          2.33930       -2.90286       -0.12261
H          0.39030       -2.28772       -2.26677
N         -0.65624        2.26525       -0.59763
C          0.00972        2.81150       -1.79924
C         -1.69281        3.14676       -0.02299
H         -1.07493        1.34066       -0.82289
H          0.47441        3.76552       -1.54555
H          0.77531        2.10058       -2.10833
H         -0.73104        2.95535       -2.58782
H         -1.23046        4.08467        0.28801
H         -2.46000        3.33959       -0.77474
H         -2.13624        2.64078        0.83313
H          0.07724        2.05354        0.12834
