36
2sa1dma1eda_51.log	Energy: -1083089.4346827
S          2.15001       -1.54498       -0.21793
O          1.32681       -2.22869       -1.24052
O          2.90682       -0.39660       -0.76988
O          1.43960       -1.24123        1.02164
O          3.27304       -2.63339        0.23180
H          3.75280       -2.91366       -0.55926
S         -1.61718        1.80564       -0.28045
O         -0.47027        2.57628       -0.81824
O         -2.11909        0.80190       -1.24635
O         -1.41744        1.29880        1.07305
O         -2.82408        2.88498       -0.12077
H         -3.01715        3.24952       -0.99508
N          1.95468        1.96704        0.26937
C          2.87997        3.03216       -0.16504
C          1.77635        1.87009        1.73613
H          1.02020        2.14199       -0.16760
H          3.86083        2.86227        0.28147
H          2.96063        3.00344       -1.25161
H          2.48659        3.99957        0.15053
H          2.74005        1.65073        2.19797
H          1.37803        2.81553        2.10730
H          1.07246        1.06483        1.93816
H          2.30027        1.05283       -0.10064
H         -1.16685       -2.86304        1.06376
H         -1.11763       -1.09632        1.23321
H         -3.32203       -2.00640        2.02234
H         -3.50226       -0.92212        0.64018
H         -3.70905       -3.84251        0.56273
H         -4.71863       -2.72292       -0.07135
H         -0.36406       -2.00103       -0.97161
H         -1.99027       -2.44690       -1.20929
C         -1.61468       -1.92405        0.72908
C         -3.12018       -1.89945        0.94940
N         -1.35820       -1.79769       -0.73010
N         -3.74597       -2.93167        0.11756
H         -1.59478       -0.82910       -1.03820
