37
2sa1dma1tma_14.log	Energy: -1073015.5145347
S          1.44409        1.71778       -0.46015
O          1.65654        0.57889       -1.38060
O          0.13925        2.36587       -0.60777
O          1.81964        1.40068        0.93301
O          2.56493        2.82111       -0.87341
H          2.38360        3.10351       -1.78028
S         -1.04395       -1.76889       -0.82978
O         -1.87858       -0.62964       -1.28786
O         -0.59203       -1.50039        0.58115
O         -1.59107       -3.09202       -1.03844
O          0.30277       -1.72091       -1.70863
H          0.66424       -0.80153       -1.70497
N          2.01667       -1.33386        1.14131
C          2.14060       -1.76203        2.54727
C          2.96356       -1.98911        0.21431
H          1.02092       -1.50163        0.83350
H          3.14398       -1.53684        2.91247
H          1.40381       -1.22209        3.14216
H          1.95057       -2.83410        2.61632
H          3.98244       -1.83281        0.57345
H          2.73824       -3.05517        0.16579
H          2.83995       -1.53949       -0.76924
H          2.11357       -0.29680        1.08181
N         -2.47592        1.05282        0.68997
C         -2.93675        2.31044        0.05269
H         -2.05732        2.87048       -0.26261
H         -3.54180        2.05376       -0.81751
H         -3.52943        2.88100        0.77167
C         -3.60804        0.17658        1.08031
H         -4.18733       -0.06278        0.18902
H         -3.19933       -0.74402        1.49753
H         -4.22481        0.69476        1.81808
C         -1.56566        1.30439        1.83457
H         -1.16988        0.34362        2.16186
H         -0.74901        1.94040        1.49790
H         -2.13350        1.78733        2.63401
H         -1.97016        0.50702       -0.05537
