36
2sa1dma1eda_217.log	Energy: -1083064.9301053
S          0.22524       -1.79326       -0.05609
O         -1.10725       -2.36321       -0.38527
O          1.01541       -1.33638       -1.19252
O          0.13089       -0.79089        1.03155
O          1.06923       -3.04542        0.52891
H          0.49959       -3.55219        1.12336
S         -3.33461        0.38394       -0.14281
O         -4.71015        0.78898       -0.05059
O         -2.49336        0.84062       -1.23622
O         -2.52914        0.92691        1.15651
O         -3.27828       -1.15750        0.02115
H         -2.95376        0.60562        1.96469
H         -2.35666       -1.58826       -0.16370
N          3.66190       -0.09350       -0.17291
C          3.67831       -0.50087        1.22720
C          4.93176       -0.34103       -0.84247
H          2.92192       -0.60324       -0.65263
H          4.35814        0.14756        1.79222
H          2.67385       -0.40463        1.64805
H          4.00605       -1.54332        1.36826
H          5.70797        0.30021       -0.40944
H          5.26953       -1.38640       -0.75544
H          4.84117       -0.09530       -1.90394
H          0.04530        3.65236       -0.33537
H         -0.29733        2.81501        1.20087
H          2.04172        3.88134        1.09945
H          2.06658        2.14524        1.40633
H          3.17196        3.45133       -0.84144
H          3.17590        1.81037       -0.47397
H         -0.79454        1.48969       -0.87844
H          0.87683        1.50427       -1.13800
C          0.34077        2.82647        0.31552
C          1.83438        2.90523        0.64976
N          0.13034        1.56553       -0.43113
N          2.60705        2.66235       -0.56058
H          0.21029        0.73520        0.19565
