24
2sa1dma_30.log	Energy: -963517.1044238
S          1.52367       -1.33322        0.01726
O          2.26099       -2.37219        0.68887
O          0.72516       -0.41897        0.91519
O          2.32184       -0.47226       -0.90545
O          0.43687       -2.08454       -0.88899
H          2.19813        1.00859       -0.64364
H         -0.21320       -1.43907       -1.23336
S         -2.41965       -0.00368       -0.02509
O         -3.81060       -0.36791       -0.04304
O         -1.57862       -0.14287       -1.20248
O         -2.32280        1.58358        0.30956
O         -1.74256       -0.66310        1.20591
H         -3.03894        1.81133        0.91987
H         -0.70393       -0.61676        1.13809
N          2.10661        2.06296       -0.42062
C          2.50634        2.26768        0.99290
C          0.71548        2.48398       -0.71560
H          2.75453        2.54942       -1.03881
H          1.86152        1.64081        1.60929
H          3.54173        1.94927        1.11478
H          2.39754        3.32074        1.25797
H          0.04937        1.93669       -0.05188
H          0.61174        3.55852       -0.55555
H          0.47802        2.22617       -1.74737
