33
2sa1ma1eda_97.log	Energy: -1058418.7744572
S          1.04178       -1.09440       -0.47609
O          1.74241       -0.08718       -1.31215
O          0.54469       -0.43775        0.77839
O         -0.04426       -1.79676       -1.18217
O          2.08840       -2.17683       -0.07188
H          3.01565       -1.72126        0.13172
S         -2.84113       -0.50118        0.34462
O         -4.20127       -0.52653        0.79419
O         -2.40285        0.62266       -0.49600
O         -1.90124       -0.55991        1.60583
O         -2.54861       -1.83970       -0.42540
H         -0.93056       -0.54692        1.32804
H         -1.59704       -1.86921       -0.74639
N          4.34368       -0.99484        0.38916
H          4.99043       -1.57916        0.91087
C          4.10282        0.27902        1.08895
H          5.02728        0.82371        1.30834
H          3.45670        0.90268        0.46801
H          3.57965        0.07303        2.02535
H          4.75992       -0.82372       -0.52187
H          0.59695        3.74075       -1.34818
H         -1.18363        3.63063       -1.20691
H         -0.19483        4.05457        0.97833
H         -0.94741        2.46036        0.96115
H          1.51811        2.86552        1.82244
H          1.14006        1.47605        1.03886
H         -0.32846        1.87123       -2.58500
H          0.68105        1.28402       -1.40747
C         -0.23355        3.16248       -0.93851
C         -0.09883        3.04230        0.57462
N         -0.20746        1.81568       -1.57527
N          1.19999        2.48845        0.93849
H         -0.98852        1.23507       -1.19711
