34
2sa1ma1tma_35.log	Energy: -1048339.9585683
S          1.22692       -0.85408        0.20851
O         -0.04470       -1.45854       -0.22983
O          2.22799       -1.77791        0.73477
O          1.79746        0.04552       -0.84757
O          0.89201        0.10460        1.45280
H          0.11551        0.67099        1.22466
S         -2.45638        0.97695        0.02994
O         -3.43914        1.85137       -0.57315
O         -1.24603        1.55211        0.60619
O         -3.12104        0.11005        1.14505
O         -2.05679       -0.06370       -1.08812
H         -4.09625       -0.16594        0.82890
H         -1.26320       -0.61420       -0.79606
N         -5.44123       -0.47377        0.20570
H         -6.15074       -0.76006        0.87318
C         -5.27355       -1.47779       -0.85842
H         -6.20061       -1.67451       -1.40661
H         -4.51100       -1.12355       -1.55430
H         -4.91573       -2.40838       -0.41374
H         -5.73067        0.41872       -0.18787
N          4.32037        0.33623       -0.30866
C          4.98974       -0.92967       -0.69154
H          4.50716       -1.74167       -0.14653
H          4.85501       -1.08564       -1.76238
H          6.05404       -0.86694       -0.45064
C          4.79634        1.49093       -1.09946
H          4.63165        1.28670       -2.15783
H          4.22474        2.37391       -0.81176
H          5.86012        1.65494       -0.91022
C          4.40917        0.58212        1.15248
H          3.81628        1.46444        1.39539
H          3.98842       -0.28149        1.66779
H          5.45480        0.73666        1.43032
H          3.26971        0.21130       -0.53636
