26
2sa1eda_23.log	Energy: -998255.9113336
S          1.25097       -1.87457       -0.13052
O          0.91482       -3.19788       -0.61512
O          2.00776       -0.98298       -1.02785
O          0.09752       -1.13150        0.47785
O          2.28434       -2.06498        1.11596
H          2.04171       -2.87793        1.57942
S         -2.79361        0.41679       -0.09614
O         -4.20165        0.45494       -0.38123
O         -1.87301        1.26586       -0.83665
O         -2.54450        0.86357        1.43780
O         -2.33152       -1.06504       -0.11719
H         -3.20322        0.43285        2.00193
H         -1.32161       -1.16714        0.08076
H          0.84154        2.71618        0.97354
H          1.12023        0.98768        1.29372
H          3.24324        2.31629        1.59295
H          3.37475        1.13656        0.28512
H          3.08066        4.02839       -0.03614
H          4.09215        2.99930       -0.80681
H         -0.11557        1.40734       -0.76680
H          1.25985        2.21197       -1.36459
C          1.38081        1.82406        0.64389
C          2.88393        2.06679        0.58684
N          0.91401        1.49064       -0.72561
N          3.16125        3.09309       -0.41979
H          1.32320        0.56595       -1.00154
