30
2sa1a1eda_31.log	Energy: -1033765.2189226
S          2.76333        0.02557        0.07501
O          2.55734        1.29724        0.79916
O          2.89609       -1.14766        0.94976
O          1.80499       -0.17509       -1.03240
O          4.17915        0.19339       -0.70487
H          4.86519        0.36978       -0.04665
S         -2.25210       -1.37134        0.18903
O         -1.87402       -2.75915       -0.16580
O         -3.59502       -1.20356        0.71230
O         -1.16058       -0.69754        0.92293
O         -2.21307       -0.54410       -1.24477
H         -2.96043       -0.84782       -1.77723
H          0.21689        3.03952       -0.92907
H         -0.30971        1.38843       -1.31764
H         -2.16691        3.05937       -1.68907
H         -2.57372        1.86465       -0.45622
H         -1.83347        4.65309        0.04226
H         -3.07075        3.78343        0.66936
H          0.88214        1.70623        0.86003
H         -0.53766        2.51112        1.36685
C         -0.47448        2.23823       -0.65520
C         -1.92215        2.71491       -0.67634
N         -0.14618        1.81159        0.72736
N         -2.10743        3.73051        0.36218
H         -0.58961        0.88455        0.91278
N          0.84018       -2.65514       -0.30999
H          1.28754       -3.44178       -0.77172
H          1.05728       -1.77093       -0.81859
H         -0.20088       -2.79144       -0.23736
H          1.26915       -2.51167        0.60950
