36
2sa1dma1eda_209.log	Energy: -1083070.5123292
S          0.49625       -1.65576       -0.25998
O          1.59594       -2.58261       -0.48859
O         -0.84269       -2.28122       -0.12185
O          0.73395       -0.99215        1.19748
O          0.46931       -0.50021       -1.19489
H          1.70528       -0.76134        1.28679
H          0.25958        0.97231       -0.27461
S         -3.25339        0.21303       -0.05283
O         -4.52898        0.68437       -0.53418
O         -2.10824        1.10252       -0.03928
O         -3.40712       -0.21165        1.50164
O         -2.93823       -1.12401       -0.76181
H         -4.19183       -0.77059        1.59360
H         -2.01919       -1.55977       -0.49313
N          0.64564        1.89968        0.01485
C          0.30174        2.21059        1.41783
C          0.18275        2.90926       -0.96100
H          1.67753        1.78904       -0.09144
H         -0.77811        2.32999        1.49267
H          0.60554        1.36917        2.03949
H          0.81526        3.12681        1.71788
H         -0.89739        3.01370       -0.86710
H          0.68273        3.86034       -0.76617
H          0.42230        2.55229       -1.96322
H          5.25107       -0.04846        0.62322
H          4.31580       -1.51836        0.29214
H          4.49217       -0.07602       -1.67461
H          2.81137       -0.35946       -1.19857
H          4.29017        2.08744       -0.50281
H          3.23253        1.94308       -1.72068
H          3.63650       -0.63621        2.36148
H          3.30368        0.83005        1.73203
C          4.24201       -0.43467        0.41023
C          3.73815        0.13786       -0.90588
N          3.31642       -0.16390        1.52093
N          3.45507        1.58437       -0.79537
