30
2sa1a1eda_61.log	Energy: -1033766.3631547
S          1.27467        1.55475        0.34859
O          0.65061        2.89057        0.46314
O          0.70228        0.82350       -0.82637
O          2.72581        1.50837        0.43371
O          0.79422        0.69297        1.63372
H         -0.13370        0.39003        1.52027
S         -2.44696       -0.68474        0.02961
O         -2.95881        0.69442       -0.13298
O         -2.04956       -1.32839       -1.22333
O         -1.43045       -0.82388        1.09882
O         -3.69203       -1.52113        0.64660
H         -4.45729       -1.39295        0.06966
H          2.01942       -1.33194        1.29135
H          1.76314       -3.08019        1.12267
H          4.07820       -2.34120        0.48168
H          3.23993       -3.19785       -0.81615
H          3.41626       -0.25617       -0.68879
H          4.13067       -1.25205       -1.79248
H         -0.06803       -1.73946        0.26075
H          0.92687       -0.93053       -0.76355
C          1.96580       -2.15638        0.57679
C          3.24935       -2.26470       -0.23900
N          0.79824       -1.85627       -0.29476
N          3.33968       -1.15298       -1.16882
H          0.63782       -2.55923       -1.01383
N         -1.37246        2.54508       -1.30200
H         -2.06479        1.89119       -0.85753
H         -0.76019        1.96615       -1.88400
H         -1.82823        3.27934       -1.83436
H         -0.72933        2.91899       -0.56099
