34
2sa1ma1tma_14.log	Energy: -1048351.9199341
S          2.81055       -0.23562       -0.11505
O          3.96077        0.32677        0.57659
O          2.89956       -1.67618       -0.43167
O          1.48728        0.12679        0.44411
O          2.73860        0.53617       -1.57272
H          3.62230        0.51038       -1.96285
S         -2.47129       -0.57564       -0.35057
O         -2.75969        0.53956       -1.25513
O         -2.11415       -1.83925       -1.02276
O         -1.54203       -0.23074        0.75182
O         -3.85064       -0.87986        0.46759
H         -4.53069       -1.11922       -0.17670
N          0.30940       -2.38896        0.21857
H          0.30054       -1.42059        0.57984
H         -0.46515       -2.41583       -0.46651
C          0.10923       -3.37163        1.30039
H          0.11840       -4.37766        0.88181
H          0.91353       -3.26704        2.02820
H         -0.85205       -3.17592        1.77490
H          1.23901       -2.46387       -0.23106
N         -0.45970        2.31238        0.40314
C          0.57590        2.82843        1.33436
H          0.24414        2.65011        2.35768
H          1.50358        2.28912        1.15361
H          0.69754        3.89983        1.16107
C         -0.05800        2.46995       -1.02220
H          0.89322        1.96103       -1.17408
H         -0.83272        2.01400       -1.63987
H          0.03266        3.53674       -1.23933
C         -1.78551        2.93248        0.66198
H         -2.50916        2.49663       -0.02697
H         -2.07773        2.71553        1.68958
H         -1.70171        4.01084        0.51134
H         -0.57908        1.29051        0.56748
