24
2sa1dma_27.log	Energy: -963517.3030243
S          3.01103       -0.31092       -0.06552
O          4.44193       -0.33900       -0.21121
O          2.13940       -0.35539       -1.22534
O          2.55855       -1.58922        0.80539
O          2.64431        0.89805        0.84792
H          3.21150       -1.73415        1.50511
H          1.65489        1.14352        0.78499
S         -0.89672        0.83918       -0.00254
O         -2.15944        1.55687       -0.13612
O          0.20225        1.58770        0.63727
O         -1.07800       -0.50675        0.62983
O         -0.44877        0.54960       -1.51734
H         -2.51096       -0.96396        0.43283
H          0.46761        0.19376       -1.51567
N         -3.55516       -1.19172        0.24675
C         -3.81686       -0.97486       -1.19912
C         -4.37934       -0.33480        1.13451
H         -3.69554       -2.17360        0.48012
H         -3.60230        0.07163       -1.41790
H         -3.14481       -1.60929       -1.77679
H         -4.85786       -1.21365       -1.42372
H         -4.12272        0.70231        0.91595
H         -5.43845       -0.52355        0.95016
H         -4.12890       -0.55997        2.17125
