36
2sa1dma1eda_115.log	Energy: -1083081.2248257
S         -0.45994        2.59331       -0.02939
O          0.93073        2.47876        0.42794
O         -0.96866        3.89654       -0.35160
O         -0.65183        1.64616       -1.26699
O         -1.39605        1.96347        1.07149
H         -0.19034        0.72681       -1.09653
H         -1.21464        0.96534        1.16194
S         -0.11091       -1.40889        0.35239
O          0.43052       -0.53786       -0.76482
O         -0.81427       -2.59452       -0.20172
O          1.01755       -1.76678        1.25017
O         -1.13910       -0.57039        1.12019
H          2.03342       -0.46805        1.23043
H         -2.76959       -1.00796        0.55128
N         -3.24546       -1.49248       -0.23965
C         -3.48925       -0.50466       -1.31461
C         -4.42762       -2.25575        0.19945
H         -2.45403       -2.13147       -0.50120
H         -4.25615        0.19933       -0.98861
H         -2.56192        0.03710       -1.50501
H         -3.81476       -1.02472       -2.21634
H         -5.17624       -1.56887        0.59709
H         -4.84204       -2.79928       -0.65085
H         -4.12075       -2.96023        0.97239
H          3.53356       -1.98541        0.23589
H          4.97514       -1.08070        0.73498
H          4.10947        0.96089       -0.38121
H          2.72524        0.03919       -1.01916
H          3.21540        0.59103        1.82596
H          1.98505        1.17472        0.85003
H          5.62470       -2.16564       -1.20135
H          4.28389       -1.73972       -2.03209
C          4.22776       -1.18559       -0.06094
C          3.44481        0.11396       -0.20232
N          4.93171       -1.43526       -1.31252
N          2.63416        0.37861        1.01757
