33
2sa1ma1eda_100.log	Energy: -1058416.2920047
S          0.22281        1.88108       -0.52797
O          1.34755        1.55527       -1.42644
O         -1.10728        1.52117       -0.99922
O          0.49060        1.41649        0.86616
O          0.17700        3.49629       -0.45422
H          1.08120        3.82572       -0.35775
S          2.62473       -1.22656        0.20114
O          3.66150       -2.15855        0.53135
O          1.28073       -1.72637       -0.09791
O          2.50854       -0.18423        1.38190
O          3.11770       -0.36655       -1.02376
H          1.74996        0.45102        1.22039
H          2.44618        0.33698       -1.25246
N         -2.07300        0.47869        2.12087
H         -2.18057        0.19456        3.08898
C         -3.19416        1.32230        1.68779
H         -3.30716        2.23764        2.28021
H         -3.02973        1.60583        0.64519
H         -4.12704        0.75397        1.75216
H         -1.19769        0.99891        2.04618
H         -1.70803       -3.00330       -0.97396
H         -2.01164       -2.99289        0.77086
H         -4.16152       -3.12068       -0.49261
H         -4.05336       -1.61949        0.43164
H         -3.69343       -1.84627       -2.46492
H         -4.61766       -0.78811       -1.61856
H         -0.41317       -1.27546       -0.05274
H         -1.69479       -0.52505       -0.82329
C         -2.15525       -2.43282       -0.15551
C         -3.63259       -2.16031       -0.42284
N         -1.43876       -1.14745       -0.04511
N         -3.75417       -1.31506       -1.60372
H         -1.69934       -0.62220        0.84599
