26
2sa1eda_99.log	Energy: -998250.6991521
S         -0.80583        1.41724        0.01726
O         -0.92139        1.00472        1.41412
O         -0.38408        0.21518       -0.84600
O         -1.96726        2.05048       -0.58870
O          0.39372        2.45196       -0.12366
H          1.21718        2.02578        0.20143
S          2.81574       -0.51719        0.16332
O          3.68175       -1.38194        0.92161
O          2.53564        0.83762        0.59684
O          3.44858       -0.33682       -1.31043
O          1.48403       -1.28127       -0.11002
H          3.92854       -1.14509       -1.54010
H          0.72345       -0.63964       -0.40171
H         -3.93027       -2.43001       -0.82925
H         -2.18796       -2.71843       -1.08115
H         -2.90128       -2.65119        1.39027
H         -1.62535       -1.50449        0.97525
H         -4.28099       -0.84646        1.80220
H         -2.93079        0.10969        1.68306
H         -3.20365       -0.74465       -2.32782
H         -3.35818       -0.04521       -0.80229
C         -2.92648       -2.02963       -0.66676
C         -2.68189       -1.74127        0.82238
N         -2.83320       -0.72863       -1.38116
N         -3.49426       -0.59753        1.21809
H         -1.83479       -0.38200       -1.38146
