24
2sa1dma_38.log	Energy: -963491.2904413
S         -1.86871       -1.14209       -0.07348
O         -1.14549       -0.25843       -0.97250
O         -3.25470       -1.44255       -0.27982
O         -1.10033       -2.50552        0.06107
O         -1.66674       -0.46048        1.36493
H         -0.11723       -2.35722        0.02828
H         -2.27890       -0.85581        2.00360
S          2.16552       -0.63940       -0.10135
O          3.57738       -0.52960       -0.31792
O          1.50215       -1.93231       -0.09976
O          1.76778       -0.02075        1.32386
O          1.45784        0.32775       -1.12096
H          2.19450        0.84215        1.44044
H          0.47546        0.18308       -1.10755
N         -0.82537        3.73707        0.25145
C         -0.99169        3.27338       -1.11679
C          0.06225        2.89346        1.02702
H         -0.48790        4.69266        0.25564
H         -1.48655        2.29755       -1.11015
H         -1.63035        3.96854       -1.66742
H         -0.03825        3.16480       -1.66436
H         -0.38510        1.89988        1.13700
H          1.06078        2.76785        0.56142
H          0.19555        3.31502        2.02760
