34
2sa1ma1tma_06.log	Energy: -1048356.3553279
S         -1.95772        1.18734       -0.24244
O         -2.56350        0.42357        0.87518
O         -0.85781        2.06756        0.13118
O         -1.70159        0.30862       -1.40801
O         -3.10512        2.23034       -0.73267
H         -3.84694        1.71997       -1.08360
S          1.07791       -1.61099       -0.64662
O          0.16624       -2.77359       -0.75883
O          0.71785       -0.81591        0.57529
O          2.49890       -1.89117       -0.77361
O          0.75911       -0.63063       -1.87955
H         -0.16469       -0.27973       -1.78396
N         -1.94794       -2.22816        0.83094
H         -1.19786       -2.45026        0.12356
H         -2.16520       -1.20219        0.77363
C         -1.45612       -2.55822        2.18739
H         -2.19639       -2.25535        2.92781
H         -1.26357       -3.62888        2.25569
H         -0.52784       -2.00676        2.33130
H         -2.79031       -2.74570        0.59161
N          2.14699        1.45812        0.59736
C          1.77955        2.41163        1.67168
H          0.78827        2.80769        1.45637
H          1.76251        1.87650        2.62181
H          2.52471        3.20995        1.70724
C          3.44899        0.79370        0.86284
H          3.40009        0.30999        1.83864
H          3.61352        0.03066        0.10040
H          4.24092        1.54583        0.85109
C          2.12838        2.09938       -0.74429
H          2.31987        1.33214       -1.49459
H          1.13740        2.52262       -0.90289
H          2.89893        2.87349       -0.77289
H          1.43274        0.67950        0.58813
