30
2sa1a1eda_07.log	Energy: -1033769.7294418
S          2.51940       -0.67337       -0.15305
O          2.85653       -0.22064        1.20561
O          1.79405       -1.95242       -0.22860
O          1.89610        0.39844       -0.96525
O          3.97382       -0.94788       -0.80849
H          3.84658       -1.35135       -1.67800
S         -1.30418        1.60386       -0.23906
O         -0.63376        2.90211       -0.31399
O         -0.84326        0.86192        1.00775
O         -2.74715        1.55173       -0.40716
O         -0.74431        0.68582       -1.44739
H          0.24096        0.62575       -1.38281
H         -2.06855       -3.49914        0.44645
H         -1.74778       -2.60024        1.95185
H         -4.14586       -2.31656        1.09654
H         -3.26622       -0.79361        1.25934
H         -4.25655       -1.90771       -1.15541
H         -3.55426       -0.42824       -0.89532
H         -0.01047       -2.17275        0.14384
H         -1.29195       -1.55575       -0.75386
C         -2.01040       -2.50515        0.89637
C         -3.31758       -1.72760        0.68960
N         -0.94850       -1.74804        0.19922
N         -3.47612       -1.42830       -0.72895
H         -0.83136       -0.80191        0.63278
N          1.47902        2.12647        1.50534
H          1.45625        2.65101        0.62722
H          1.62114        2.75416        2.29059
H          0.53920        1.65227        1.54352
H          2.19613        1.36935        1.46212
