30
2sa1a1eda_198.log	Energy: -1033731.6458859
S         -1.57220       -0.88251        0.23032
O         -2.33217        0.35265        0.15632
O         -0.53241       -0.99749        1.24903
O         -2.54880       -2.07437        0.40860
O         -0.94308       -1.21446       -1.18091
H         -3.51801       -1.80585        0.10337
H          0.02019       -0.99315       -1.18811
S          2.70215       -0.64353       -0.15358
O          3.40871        0.55187       -0.54865
O          1.78719       -1.32057       -1.05012
O          3.80494       -1.74975        0.21777
O          2.02421       -0.40889        1.24148
H          4.61686       -1.29770        0.48814
H          1.04275       -0.60215        1.21256
H         -0.23720        1.79202        1.23278
H          1.39567        2.37127        0.92961
H         -0.17282        4.23978        1.28541
H          0.49107        4.29810       -0.35687
H         -2.12788        3.11166        0.25086
H         -1.88461        4.56949       -0.46862
H         -0.42033        1.68626       -1.23869
H          1.20806        1.81498       -1.30303
C          0.39025        2.31795        0.50181
C         -0.16865        3.72814        0.30882
N          0.43607        1.51143       -0.71609
N         -1.48496        3.65037       -0.32204
N         -4.89299       -1.27838       -0.34140
H         -5.20847       -1.63651       -1.23736
H         -4.73850       -0.27661       -0.43239
H         -5.63124       -1.42727        0.33919
