26
2sa1eda_58.log	Energy: -998254.9324753
S          0.65333       -2.02900        0.09526
O          1.35586       -3.24399        0.43485
O          0.38848       -1.09123        1.23274
O          1.69782       -1.09614       -0.76949
O         -0.53726       -2.18999       -0.75897
H          2.08825       -1.63436       -1.47214
H         -1.75558       -1.16715       -0.96642
S         -2.20390        0.74578       -0.11021
O         -3.37131        1.57145       -0.04127
O         -2.52903       -0.52188       -0.96495
O         -0.94240        1.32732       -0.59559
O         -1.91970        0.18064        1.34684
H          0.38056        1.63600        0.45833
H         -1.11046       -0.40920        1.34718
H          3.32995        0.75777       -0.26043
H          3.87037        2.39732       -0.59618
H          3.03968        2.18275        1.72638
H          2.06804        3.34680        0.79755
H          1.23314        0.50928        1.28061
H          0.67998        1.85186        2.07579
H          1.41569        1.08258       -1.57048
H          1.73202        2.69740       -1.79810
C          2.98145        1.78297       -0.41595
C          2.34997        2.29414        0.88577
N          2.13739        1.79409       -1.58669
N          1.10682        1.53853        1.20452
