30
2sa1a1eda_86.log	Energy: -1033763.6827794
S         -2.94298       -0.20881       -0.11664
O         -2.66683        0.94197       -0.96332
O         -3.14765       -1.51148       -0.76307
O         -1.93168       -0.33323        0.99578
O         -4.34380        0.16277        0.61250
H         -4.72448       -0.65064        0.96920
S          2.45254       -1.13953        0.04479
O          2.94676       -0.02584        0.85203
O          2.14053       -2.37284        0.77820
O          1.33943       -0.74016       -0.87266
O          3.62116       -1.51075       -1.02432
H          4.40506       -1.78206       -0.52738
H          0.20979        2.95334        1.63820
H          1.44383        1.65841        1.67111
H          2.42000        3.78315        0.80096
H          2.44918        2.48763       -0.39459
H          0.62710        4.78272       -0.40687
H          1.50729        4.15749       -1.63777
H         -0.73259        0.96857        0.66054
H         -0.45166        2.08523       -0.54865
C          0.86567        2.32451        1.02994
C          1.78603        3.16395        0.15313
N          0.00531        1.49426        0.15414
N          0.98301        3.92084       -0.80497
H          0.56570        0.77376       -0.34548
N         -0.58122       -2.50237       -0.01764
H         -1.33012       -2.95493       -0.54055
H          0.02932       -1.92963       -0.63628
H         -1.03587       -1.82168        0.62855
H          0.04114       -3.14128        0.47838
