36
2sa1dma1eda_215.log	Energy: -1083065.7519294
S         -0.02250        0.85462       -0.92578
O          0.57541        1.12966        0.41054
O         -1.14479        1.73269       -1.25131
O          1.09551        1.18867       -2.01355
O         -0.35682       -0.58705       -1.06892
H          1.90819        0.67534       -1.80739
H         -2.07773       -0.65305       -1.32022
S          3.74120       -0.20211        0.32263
O          5.13870       -0.10481        0.65246
O          3.29047       -0.17931       -1.05655
O          3.18339       -1.60646        0.89112
O          2.97026        0.85897        1.16246
H          3.66489       -1.81638        1.70407
H          1.99786        0.96358        0.84728
N         -3.16989        1.26026        0.87333
C         -2.47227        0.94602        2.12371
C         -4.51684        1.78215        1.08919
H         -2.61062        1.93367        0.34896
H         -2.92435        0.06188        2.57982
H         -1.42612        0.72703        1.90309
H         -2.51179        1.78384        2.83398
H         -5.12587        1.01984        1.58563
H         -4.52455        2.68512        1.71558
H         -4.98082        2.02451        0.12867
H         -4.44187       -1.85351       -0.04983
H         -4.00290       -2.43091       -1.67680
H         -2.98988       -3.79318        0.13732
H         -1.77843       -3.07629       -0.93012
H         -1.58627       -2.89178        1.66932
H         -1.15520       -1.62317        0.73337
H         -3.58691       -0.17842       -1.84496
H         -3.14410        0.06917       -0.21665
C         -3.61972       -1.97525       -0.75984
C         -2.52350       -2.84738       -0.15421
N         -3.09141       -0.62209       -1.07547
N         -1.94241       -2.20383        1.01730
