34
2sa1ma1tma_44.log	Energy: -1048333.0075643
S          2.86820        0.06887        0.42072
O          4.11048        0.29026        1.11369
O          1.60145        0.39106        1.07413
O          2.84334        1.02882       -0.88367
O          2.84827       -1.35268       -0.15833
H          3.71466        1.00017       -1.30448
H          1.87603       -1.74875       -0.41148
S         -0.59117       -1.58085       -0.56766
O         -1.79272       -2.35063       -0.80905
O          0.67759       -2.36122       -0.66454
O         -0.47827       -0.30938       -1.32545
O         -0.70337       -1.13364        0.98953
H         -0.89487        1.05849       -0.60006
H          0.12934       -0.67738        1.23005
N         -3.91866       -0.27832        0.18097
H         -4.83569       -0.23278       -0.25315
C         -4.05279       -0.73627        1.56738
H         -4.58930       -1.68840        1.67503
H         -3.05476       -0.87285        1.99150
H         -4.57850        0.02126        2.15813
H         -3.38841       -0.97379       -0.34322
N         -1.14208        2.04287       -0.30501
C          0.02589        2.88709       -0.65118
H          0.88942        2.53459       -0.08866
H          0.22672        2.78095       -1.71736
H         -0.19833        3.92837       -0.40823
C         -2.35476        2.40163       -1.08289
H         -2.13203        2.28934       -2.14452
H         -3.14590        1.70741       -0.78610
H         -2.62753        3.43621       -0.86065
C         -1.41862        2.03852        1.15291
H         -2.22481        1.32845        1.33769
H         -0.51305        1.73627        1.67846
H         -1.71284        3.04564        1.45854
