34
2sa1ma1tma_13.log	Energy: -1048355.4982190
S         -2.00856       -0.52774       -0.71712
O         -3.27988       -1.17827       -0.93450
O         -2.08390        0.97577       -0.59837
O         -1.19848       -1.04875        0.41608
O         -1.14662       -0.79225       -2.04579
H          0.98327       -0.98337        0.25494
H         -0.28001       -0.32655       -1.94986
S          1.39132        1.52486       -0.49043
O          2.57872        2.31913       -0.69975
O          1.21441        0.36414       -1.41007
O          1.21727        1.04033        0.92393
O          0.14173        2.50042       -0.76601
H         -0.23183        1.41582        1.63092
H         -0.67937        1.96099       -0.89726
N         -1.23362        1.62974        1.88149
H         -1.30707        2.62573        2.07782
C         -1.72300        0.78720        2.99347
H         -2.76984        1.01637        3.19282
H         -1.63312       -0.25052        2.67334
H         -1.12381        0.97130        3.88554
H         -1.75117        1.42166        0.98964
N          1.51927       -1.84905        0.44051
C          1.14097       -2.29323        1.80340
H          1.40238       -1.50052        2.50479
H          0.06578       -2.46548        1.81665
H          1.68774       -3.20731        2.04432
C          1.11939       -2.83458       -0.59707
H          0.04548       -2.99515       -0.51869
H          1.35417       -2.41449       -1.57435
H          1.67226       -3.76199       -0.43372
C          2.96296       -1.50931        0.35071
H          3.16747       -1.14055       -0.65333
H          3.17856       -0.72244        1.07268
H          3.54745       -2.40678        0.56338
