31
2sa1a1tma_37.log	Energy: -1023674.9974842
S          0.32817        0.16341        0.53120
O         -0.51419        1.31260        0.12148
O          0.47146       -0.86533       -0.50378
O          1.63807        0.60948        1.07302
O         -0.37437       -0.49803        1.80644
H         -1.31730       -0.67303        1.59029
S         -3.66614       -0.08443       -0.14021
O         -5.08933        0.12730       -0.13082
O         -2.99676       -0.72470        0.97698
O         -3.29421       -1.01807       -1.39964
O         -2.98000        1.27340       -0.48106
H         -3.86237       -0.77456       -2.14437
H         -1.97931        1.26401       -0.26373
N          3.28608        2.67601       -0.39992
H          2.80100        3.12399       -1.17172
H          3.75448        3.41701        0.11233
H          2.56551        2.29304        0.21296
N          3.59035       -0.69604       -0.22942
C          4.90097       -0.20084        0.25364
H          4.96127        0.86204        0.01355
H          4.95561       -0.34555        1.33334
H          5.70041       -0.75980       -0.23865
C          3.35000       -2.11759        0.12242
H          3.44895       -2.23300        1.20226
H          2.33342       -2.37168       -0.17912
H          4.08267       -2.74322       -0.39226
C          3.41407       -0.45028       -1.68438
H          2.39571       -0.73382       -1.95145
H          3.56829        0.61510       -1.85872
H          4.14590       -1.04564       -2.23566
H          2.84278       -0.13938        0.26954
