33
2sa1ma1eda_127.log	Energy: -1058416.9666150
S         -2.29413       -1.26572       -0.35612
O         -3.15372       -2.16396       -1.08733
O         -1.10707       -0.74275       -1.10745
O         -2.99455       -0.11958        0.29535
O         -1.66962       -2.14980        0.84510
H         -2.10021        1.02193        1.02526
H         -0.90811       -1.67956        1.24146
S          1.64541       -0.38552        0.71488
O          0.50129       -0.51005        1.65152
O          2.91284       -0.95849        1.20844
O          1.30626       -1.24590       -0.56746
O          1.82250        1.02693        0.26748
H          0.33028       -1.09787       -0.84629
H          3.52984        1.09709       -0.38574
N          4.36588        0.48372       -0.49963
H          5.22576        1.00009       -0.33097
C          4.33955       -0.19673       -1.82084
H          5.15816       -0.91338       -1.87146
H          3.38445       -0.71697       -1.90282
H          4.43346        0.54595       -2.61218
H          4.17841       -0.20621        0.26847
H         -0.63248        1.64882       -1.12268
H         -0.67970        3.40751       -1.32740
H          0.12905        2.97740        0.88627
H         -1.53733        3.63265        1.00869
H         -0.54122        0.91301        1.55817
H         -1.61449        1.84041        2.41810
H         -2.73201        2.77051       -2.09907
H         -2.98390        1.64769       -0.94335
C         -1.15255        2.56498       -0.81271
C         -0.92570        2.79197        0.67567
N         -2.57933        2.56555       -1.11888
N         -1.32536        1.59052        1.47531
