36
2sa1dma1eda_92.log	Energy: -1083087.0684135
S         -0.70029        1.97379       -0.83662
O         -1.39611        3.11313       -1.38817
O          0.75579        1.88411       -1.07902
O         -1.00022        1.71781        0.61154
O         -1.34188        0.67276       -1.59537
H         -2.29301       -0.04949        1.11346
H         -0.67095       -0.08373       -1.61272
S          1.54147       -1.53737       -0.87995
O          2.28595       -2.70495       -1.28584
O          0.19461       -1.38799       -1.50640
O          1.41948       -1.37866        0.60932
O          2.39060       -0.26274       -1.36979
H          1.49182        0.09443        1.28504
H          1.80350        0.53001       -1.38678
N          1.35626        0.99643        1.81401
C          2.52184        1.88335        1.62413
C          1.05459        0.66185        3.21862
H          0.50249        1.41180        1.37850
H          3.41552        1.38707        2.00509
H          2.62695        2.08270        0.55881
H          2.35457        2.82012        2.15856
H          1.90436        0.13633        3.65697
H          0.85403        1.57798        3.77686
H          0.17329        0.01866        3.23459
H         -1.51656       -2.35010       -0.35507
H         -2.34426       -3.49687        0.70340
H         -3.94109       -1.89560       -0.47520
H         -4.04298       -1.78843        1.30100
H         -2.54189        0.06829       -0.49937
H         -3.79036        0.43911        0.55050
H         -1.38244       -2.43652        2.50991
H         -0.31611       -1.83391        1.39995
C         -2.09318       -2.43897        0.57088
C         -3.39358       -1.64166        0.43423
N         -1.30161       -1.88122        1.66661
N         -3.01887       -0.20517        0.39146
