30
2sa1a1eda_15.log	Energy: -1033767.9927090
S          1.52493       -1.82261       -0.15693
O          0.12095       -2.21585        0.00789
O          1.73810       -0.64348       -1.02352
O          2.28942       -1.70074        1.10436
O          2.14383       -3.09150       -0.94577
H          3.07866       -2.91750       -1.12107
S          0.12105        2.37341       -0.23433
O          1.52566        2.79135       -0.34990
O         -0.05902        1.59109        1.06151
O         -0.91577        3.36065       -0.44101
O         -0.14142        1.26416       -1.38085
H          0.57733        0.58702       -1.35301
H         -3.26493        0.81303       -0.20241
H         -2.20314       -0.05578       -1.31157
H         -4.50752       -1.08683       -1.25670
H         -3.27718       -2.21767       -0.68310
H         -5.16131       -0.75103        1.00947
H         -4.81501       -2.34952        1.00424
H         -1.24998        0.43661        0.94595
H         -2.39470       -0.70090        1.53428
C         -2.78133       -0.14880       -0.39280
C         -3.79606       -1.28355       -0.44479
N         -1.83973       -0.40579        0.72474
N         -4.41738       -1.42748        0.87335
H         -1.16541       -1.16030        0.48320
N          2.53143        1.01249        1.53531
H          3.09120        1.36368        2.30586
H          2.74317        1.51912        0.66486
H          2.63258       -0.01862        1.40935
H          1.51059        1.21986        1.66094
