31
2sa1ma1dma_39.log	Energy: -1023685.0911121
S          0.89278        1.80689        0.13111
O          2.05572        1.12330        0.68236
O          0.42233        1.18626       -1.14624
O         -0.22731        2.05583        1.05755
O          1.45563        3.26788       -0.26789
H          0.70495        3.86500       -0.39180
S         -2.37401       -0.36749       -0.10564
O         -3.64612       -1.01199       -0.25610
O         -1.16402       -1.16265        0.08916
O         -2.13826        0.55585       -1.37263
O         -2.49571        0.65827        1.08859
H         -1.19262        0.87551       -1.36995
H         -1.64876        1.17526        1.17645
N          1.96124       -1.68359        1.71542
H          2.84075       -2.07226        2.04148
C          0.83813       -2.21280        2.50458
H          0.93236       -2.00710        3.57682
H         -0.08804       -1.77005        2.13469
H          0.77208       -3.29442        2.36140
H          2.02772       -0.67122        1.82410
N          1.49757       -1.49625       -1.00110
C          0.89262       -2.70207       -1.60078
C          2.77718       -1.08244       -1.61274
H          0.84165       -0.70222       -1.05340
H          1.57611       -3.54307       -1.46998
H         -0.05398       -2.89533       -1.09827
H          0.71810       -2.53343       -2.66496
H          3.50270       -1.89110       -1.50533
H          2.62193       -0.86216       -2.67000
H          3.12614       -0.18935       -1.09422
H          1.66137       -1.65359        0.05042
