37
2sa1dma1tma_49.log	Energy: -1073004.5609930
S          1.33626       -0.39386        0.98669
O          2.64701       -0.45782        1.63177
O          0.16143       -0.33004        1.86874
O          1.30595        0.73847       -0.02071
O          1.24886       -1.72991        0.13226
H          2.62200        0.63762       -0.77103
H          0.29431       -2.00821       -0.06702
S         -2.20074       -1.43555       -0.45671
O         -3.52004       -1.85652       -0.87399
O         -1.17789       -2.49740       -0.31712
O         -1.64359       -0.27513       -1.22116
O         -2.40756       -0.83370        1.04738
H         -1.62736        1.05088       -0.39545
H         -1.51775       -0.76987        1.46477
N          3.61276        0.52198       -1.21038
C          3.87917       -0.92607       -1.41695
C          4.58704        1.17700       -0.30353
H          3.59944        0.99526       -2.11248
H          3.87337       -1.40904       -0.44008
H          3.07555       -1.34802       -2.01918
H          4.84566       -1.05122       -1.90874
H          4.47549        0.71283        0.67728
H          5.59893        1.04450       -0.69102
H          4.34498        2.23761       -0.23179
N         -1.82637        2.06217       -0.11145
C         -1.50912        2.28089        1.31917
H         -2.13440        1.62064        1.91855
H         -0.46352        2.02938        1.48746
H         -1.70892        3.32693        1.56718
C         -0.97240        2.88836       -0.99302
H          0.06606        2.63793       -0.77459
H         -1.19920        2.63760       -2.02993
H         -1.17044        3.94711       -0.80677
C         -3.27082        2.24503       -0.38917
H         -3.45702        2.00975       -1.43697
H         -3.83098        1.54828        0.23498
H         -3.55592        3.27667       -0.16833
