36
2sa1dma1eda_211.log	Energy: -1083068.4056104
S         -0.02381       -1.63114       -0.62539
O          1.08674       -2.43645       -1.10366
O         -1.37784       -2.13308       -0.97430
O          0.03916       -1.26093        0.80967
O          0.13437       -0.23131       -1.44198
H          1.13533       -0.15589        1.38424
H         -0.68073        0.29384       -1.28515
S         -3.15865        0.55806        0.23852
O         -4.44813        1.19057        0.32470
O         -2.13594        1.09228       -0.64916
O         -2.45734        0.62714        1.69270
O         -3.36841       -0.95788       -0.00170
H         -3.10405        0.35841        2.36100
H         -2.52528       -1.45090       -0.37108
N          2.00529        1.99746       -0.65647
C          3.29649        2.55132       -1.05161
C          0.91784        2.97486       -0.69907
H          1.77082        1.20779       -1.25705
H          3.59968        3.32066       -0.33344
H          4.03767        1.74986       -1.04374
H          3.26979        3.01021       -2.05017
H          1.11587        3.77020        0.02738
H          0.80554        3.43814       -1.68912
H         -0.02616        2.49194       -0.43467
H          3.95075        0.55623        2.02042
H          3.00981       -0.55894        3.03916
H          4.33673       -1.82532        1.41486
H          2.61501       -2.05197        1.12325
H          4.49747       -0.93087       -0.66130
H          2.94108       -1.39341       -0.92372
H          1.55064        1.14004        2.36306
H          2.02697        1.14236        0.72015
C          3.13682       -0.17430        2.02303
C          3.42902       -1.32296        1.05915
N          1.89234        0.53214        1.62232
N          3.54960       -0.84952       -0.31630
