31
2sa1ma1dma_43.log	Energy: -1023685.2608032
S         -1.45045        0.20547       -0.76901
O         -0.21616        0.60625       -1.48302
O         -2.69855        0.35294       -1.54115
O         -1.36608       -1.34306       -0.47549
O         -1.55274        0.89894        0.55332
H         -0.43202       -1.64419       -0.16460
H         -3.22411        0.59527        1.04191
S          2.17469       -1.39894        0.28201
O          3.38467       -2.17553        0.40528
O          0.91560       -2.18465        0.18192
O          2.03594       -0.29211        1.27182
O          2.29758       -0.63743       -1.16397
H          1.68687        1.13293        0.73506
H          1.40092       -0.39347       -1.46805
N         -4.14649        0.20107        0.73231
H         -4.91761        0.78543        1.04587
C         -4.28092       -1.21946        1.14977
H         -5.19537       -1.63434        0.72754
H         -3.41204       -1.75473        0.76529
H         -4.30485       -1.27476        2.23742
H         -4.02299        0.27125       -0.30194
N          1.45317        2.06005        0.26240
C          2.67160        2.56018       -0.40735
C          0.85782        2.98629        1.24415
H          0.74908        1.78625       -0.44338
H          3.42846        2.77006        0.34968
H          3.03478        1.78024       -1.07683
H          2.43892        3.46906       -0.96538
H          1.57719        3.16164        2.04552
H          0.61093        3.93028        0.75425
H         -0.04571        2.52182        1.63754
