30
2sa1a1eda_190.log	Energy: -1033746.4930234
S         -0.20576       -0.97955       -0.33276
O         -1.43486       -1.55829       -0.90456
O          0.37781        0.08700       -1.18028
O         -0.38510       -0.54471        1.07265
O          0.82769       -2.19648       -0.33031
H         -2.02365       -0.98231        1.65086
H          1.72114       -1.85330       -0.10468
S          3.55650        0.47474        0.12719
O          4.90854        0.91671       -0.08951
O          3.22858       -0.93795        0.17683
O          3.05525        1.03978        1.55061
O          2.63962        1.21059       -0.89724
H          3.42572        1.92459        1.67940
H          1.72097        0.76699       -0.97826
H         -4.91013        2.51824       -0.08724
H         -3.75632        2.40965        1.25279
H         -2.65597        2.36835       -1.01619
H         -2.26335        0.99095       -0.01088
H         -3.89914        0.96139       -2.39534
H         -2.85979       -0.16460       -1.79847
H         -5.59643        0.87665        1.55741
H         -5.24705        0.16901        0.11195
C         -4.18674        1.85786        0.41151
C         -3.07947        1.46097       -0.56675
N         -4.84163        0.63959        0.92131
N         -3.58492        0.50256       -1.54846
N         -2.95929       -1.36180        1.39425
H         -3.23318       -2.11465        2.01851
H         -2.78092       -1.71621        0.43854
H         -3.69572       -0.58650        1.34675
