18
2sa1a_04.log	Energy: -914200.1516842
S         -1.87568       -0.31369       -0.02092
O         -1.94382        0.50760        1.20730
O         -1.93051        0.45811       -1.25804
O         -0.73154       -1.27233        0.04413
O         -3.19744       -1.23108       -0.06004
H         -3.18055       -1.84266        0.68956
S          2.18375       -0.09551       -0.00649
O          3.60945       -0.18779        0.05150
O          1.57653        1.22718       -0.16811
O          1.66398       -1.02989       -1.17499
O          1.57844       -0.76901        1.29292
H          0.69008       -1.16488       -1.07389
H          0.61853       -0.96148        1.13690
N         -0.73108        2.64242        0.02170
H         -1.26634        2.09566        0.73022
H         -1.24570        2.51898       -0.85496
H         -0.61733        3.62110        0.27041
H          0.18903        2.16123       -0.08904
