33
2sa1ma1eda_96.log	Energy: -1058421.2207464
S         -2.65937       -1.16497        0.02995
O         -3.46139       -2.35687        0.16052
O         -1.20078       -1.38907       -0.24198
O         -3.17247       -0.15497       -0.94399
O         -2.71302       -0.45268        1.47574
H         -2.05928        0.71226       -1.54266
H         -2.12739        0.33340        1.47092
S          0.64451        1.01677        0.97954
O          1.70330        1.56283        1.81985
O         -0.71931        1.53685        1.15236
O          1.04476        1.10483       -0.48919
O          0.62348       -0.53854        1.30209
H          2.61786        0.83667       -0.44668
H         -0.11774       -0.97544        0.75404
N         -1.32473        1.39153       -1.94242
H         -0.41429        1.18497       -1.48320
C         -1.73274        2.78667       -1.66221
H         -1.00206        3.48066       -2.07900
H         -2.71682        2.96553       -2.09502
H         -1.77313        2.90277       -0.57985
H         -1.23921        1.21159       -2.93976
H          4.75849       -0.88694        0.74189
H          3.10516       -0.63296        1.37441
H          3.26708       -2.76265        0.02963
H          2.12870       -1.60545       -0.65392
H          4.77330       -2.25715       -1.71482
H          3.36246       -2.05138       -2.50842
H          4.03912        1.35318        0.28324
H          4.11816        0.45754       -1.15362
C          3.71285       -0.71286        0.47317
C          3.19041       -1.78981       -0.46887
N          3.63998        0.58666       -0.25518
N          3.92155       -1.70653       -1.73733
