39
2sa1eda1tma_50.log	Energy: -1107747.9832851
S          0.95882        2.04315       -0.16629
O          0.12821        3.18862        0.23499
O          0.06035        1.32798       -1.31475
O          2.26394        2.34860       -0.74852
O          1.04094        1.01093        0.91392
H          2.13471       -0.12440        0.50250
S         -0.94983       -1.97297       -0.29967
O         -1.95830       -2.53865       -1.18686
O         -1.50924       -1.14493        0.79121
O         -0.22676       -3.24679        0.44407
O          0.21354       -1.33771       -0.95557
H         -0.90693       -3.91222        0.61031
H          0.16510        0.34534       -1.26025
H         -3.55435        2.66256       -0.07917
H         -2.40942        1.84727       -1.17297
H         -4.81232        0.81074       -0.93129
H         -3.44501       -0.29912       -0.84270
H         -5.34566       -0.04423        1.08160
H         -3.85445       -0.69008        1.30787
H         -1.33337        2.31569        0.85974
H         -2.59060        1.54677        1.73596
C         -3.00446        1.73702       -0.26548
C         -3.94341        0.52939       -0.32968
N         -2.05512        1.56732        0.86617
N         -4.35435        0.14774        1.02494
H         -1.57500        0.64608        0.80486
N          3.02963       -0.66792        0.33922
C          4.09105        0.16088        0.96265
H          4.07679        1.14088        0.48401
H          3.86970        0.27366        2.02418
H          5.05773       -0.32943        0.82611
C          2.88114       -1.98886        0.99399
H          2.67124       -1.83239        2.05260
H          2.04630       -2.51681        0.53373
H          3.81013       -2.55170        0.87480
C          3.23652       -0.79549       -1.12736
H          2.41175       -1.37532       -1.53980
H          3.24017        0.20705       -1.55740
H          4.19202       -1.29537       -1.30414
