39
2sa1eda1tma_09.log	Energy: -1107751.9269499
S          0.16983       -1.65456       -0.96173
O         -0.07456       -1.04138        0.38756
O          1.57990       -1.43909       -1.35543
O         -0.33735       -3.01197       -1.09089
O         -0.74453       -0.79536       -1.96812
H         -0.53500        0.16833       -1.85000
S         -0.52510        2.39311       -0.16969
O         -1.74166        1.86433        0.43547
O          0.63175        2.53456        0.74429
O         -0.12099        1.74851       -1.44272
O         -0.95502        3.91039       -0.57259
H         -0.21130        4.32100       -1.03311
H          3.10457        0.61913        2.14270
H          1.91161       -0.61193        1.64549
H          4.18548       -1.64397        1.99676
H          3.62487       -1.78857        0.32447
H          5.69833        0.03457        1.29002
H          5.69911       -0.92757       -0.03368
H          1.85815        1.42252        0.29668
H          3.43363        1.02503       -0.23638
C          2.83283       -0.09953        1.36453
C          3.96642       -1.07749        1.08248
N          2.54868        0.65885        0.12374
N          5.11554       -0.34141        0.55014
H          2.15410       -0.00441       -0.58213
N         -2.70139       -1.06218        0.90156
C         -2.79081       -2.53414        1.07867
H         -2.39208       -3.01742        0.18531
H         -2.17886       -2.82062        1.93435
H         -3.83410       -2.80972        1.24852
C         -3.07353       -0.32785        2.13474
H         -2.43289       -0.66896        2.94883
H         -2.91235        0.73528        1.96204
H         -4.12022       -0.53575        2.36986
C         -3.49012       -0.60890       -0.27456
H         -3.33310        0.46234       -0.39428
H         -3.11958       -1.12991       -1.15731
H         -4.54426       -0.83754       -0.09914
H         -1.68063       -0.86798        0.70005
