28
2sa1a1dma_73.log	Energy: -998995.9108420
S          1.42781       -0.51629       -0.29961
O          2.79513       -0.05859       -0.37609
O          0.44916        0.00319       -1.24964
O          1.36118       -2.06690       -0.38063
O          0.94231       -0.17346        1.16987
H          2.24868       -2.48718        0.01903
H         -0.04274       -0.24014        1.23708
S         -2.70994       -0.39811        0.10715
O         -1.74571       -0.32170        1.19002
O         -4.06921        0.02386        0.28871
O         -2.15166        0.33462       -1.16200
O         -2.68072       -1.94691       -0.31896
H         -1.16124        0.21523       -1.23427
H         -3.42196       -2.12806       -0.91577
N          1.43430        3.12708        0.59936
C          1.73152        3.45876       -0.78391
C          0.01100        2.99931        0.85249
H          1.91027        2.26995        0.85644
H          1.33185        4.45388       -1.00993
H          2.81417        3.49000       -0.93091
H          1.30290        2.74703       -1.51099
H         -0.46873        3.97851        0.74430
H         -0.50203        2.30346        0.16459
H         -0.15558        2.65644        1.87705
N          3.59621       -2.94123        0.55289
H          3.59354       -3.11587        1.55343
H          4.21633       -2.15434        0.37284
H          3.97611       -3.76065        0.08904
