36
2sa1dma1eda_135.log	Energy: -1083081.5188766
S          0.64223       -1.65663       -0.14914
O          1.67881       -2.65170        0.08984
O          0.07338       -1.01774        1.06260
O          1.17983       -0.55322       -1.05501
O         -0.51814       -2.35448       -0.93473
H          2.66266       -0.35863       -0.54392
H         -1.31162       -1.71933       -1.00698
S         -3.05185        0.02625        0.11550
O         -4.49236        0.00952        0.05017
O         -2.33928       -0.56734       -1.06507
O         -2.43947        1.36829        0.38537
O         -2.66358       -0.89631        1.36939
H         -1.28467        1.55152       -0.60765
H         -1.68454       -0.97681        1.41146
N          3.68346       -0.27943       -0.23437
C          3.78871       -0.58414        1.21639
C          4.17220        1.06996       -0.59794
H          4.17266       -1.00124       -0.76360
H          3.21671        0.17247        1.75188
H          3.35473       -1.56915        1.38738
H          4.83777       -0.55254        1.51577
H          3.54773        1.78543       -0.05828
H          5.22083        1.17559       -0.31480
H          4.05889        1.20882       -1.67371
H          1.31642        2.86385       -1.32821
H         -0.21000        3.76654       -1.18324
H          0.99694        3.88981        0.90947
H         -0.51079        2.98695        1.12697
H          1.47867        2.01115        2.17690
H          0.77349        0.96708        1.16585
H         -0.76113        1.73293       -2.20271
H          0.15536        0.81561       -1.17211
C          0.33908        2.88754       -0.83784
C          0.49032        2.94786        0.67655
N         -0.42382        1.68214       -1.24377
N          1.30441        1.84192        1.19019
