33
2sa1ma1eda_38.log	Energy: -1058427.3577075
S          2.27729       -1.03522       -0.12798
O          1.83998       -2.10454       -1.02807
O          2.93888        0.10532       -0.76077
O          1.20170       -0.63914        0.83383
O          3.36813       -1.69142        0.89181
H          4.15377       -1.92070        0.37693
S         -2.88607        0.31295       -0.03283
O         -3.25240       -0.99001        0.57033
O         -2.59707        1.38933        0.92588
O         -1.84042        0.15843       -1.06261
O         -4.23013        0.84365       -0.76949
H         -4.60377        0.11492       -1.28254
N         -0.88154       -2.31556        0.02479
H         -0.17239       -1.71620        0.49411
H         -1.82774       -2.00017        0.32715
C         -0.61476       -3.74921        0.26368
H         -1.33997       -4.34901       -0.28590
H          0.39727       -3.96834       -0.07476
H         -0.70755       -3.94844        1.33080
H         -0.79595       -2.06357       -0.96161
H          0.29952        3.91460        0.79699
H          0.91847        2.82067        2.05686
H          2.74616        3.94224        0.63605
H          2.82152        2.17700        0.66975
H          2.40014        3.77874       -1.61408
H          2.55096        2.13266       -1.50104
H         -0.92220        1.85398        0.64621
H          0.13937        1.99301       -0.64978
C          0.85180        2.98976        0.98039
C          2.23276        3.02934        0.31741
N          0.08036        1.88499        0.37073
N          2.07768        2.95119       -1.13226
H          0.49936        0.95815        0.58889
