30
2sa1a1eda_96.log	Energy: -1033765.8650879
S          1.87987       -1.47350        0.15150
O          1.83770       -0.37442        1.17209
O          2.71613       -1.02142       -0.99464
O          2.15621       -2.79380        0.66514
O          0.36560       -1.55517       -0.42260
H          0.11973       -0.65956       -0.77413
S         -0.38816        1.93944       -0.00386
O         -0.38613        0.88428       -1.05634
O          0.74685        2.86719       -0.14131
O         -1.71372        2.57569        0.11027
O         -0.23158        1.17650        1.39354
H          0.57203        0.56939        1.37594
H         -1.90618       -0.46730        1.07400
H         -3.59027       -0.36353        1.61559
H         -2.84802       -2.73763        1.04785
H         -4.24281       -2.20970        0.09932
H         -1.47648       -2.34517       -0.86286
H         -2.83448       -2.97951       -1.53905
H         -2.76686        1.28397       -0.15905
H         -2.74164       -0.07594       -1.17062
C         -2.94455       -0.61886        0.77429
C         -3.17201       -2.04123        0.26421
N         -3.19941        0.33895       -0.34162
N         -2.47474       -2.19707       -1.00694
H         -4.19308        0.43995       -0.54098
N          3.14410        1.55148       -0.47319
H          3.44953        1.43176        0.49219
H          2.24330        2.08665       -0.45271
H          3.84778        2.04444       -1.01524
H          2.98123        0.56336       -0.84047
