33
2sa1ma1eda_179.log	Energy: -1058407.8811815
S          0.05111       -0.66478        0.50064
O          1.36022       -1.28942        0.69162
O         -1.06675       -1.36222        1.17132
O          0.04242        0.79239        0.78314
O         -0.19084       -0.81286       -1.08538
H          1.49219        1.55909        0.64705
H         -1.10149       -0.50863       -1.29437
S         -3.83842        0.10555       -0.29932
O         -2.82415       -0.02416       -1.32977
O         -5.23671       -0.01178       -0.61840
O         -3.53493       -0.85049        0.89218
O         -3.57525        1.57119        0.31830
H         -2.53058       -1.01803        1.01486
H         -4.31988        1.80242        0.89179
N          2.44505        2.00740        0.69648
H          2.44375        2.60176        1.52276
C          2.76509        2.77373       -0.52914
H          3.71070        3.29992       -0.39081
H          2.86751        2.05111       -1.34003
H          1.96782        3.48783       -0.73693
H          3.14087        1.20114        0.85714
H          5.49455        0.35283       -0.28470
H          5.75150       -1.26502        0.39577
H          4.96835       -1.37680       -1.89938
H          3.83329       -2.15658       -0.79439
H          3.02572       -0.49525       -2.61345
H          2.31178       -0.52477       -1.16228
H          3.32668       -0.87503        1.26036
H          4.57665       -0.14865        2.03889
C          4.98460       -0.55451        0.05944
C          4.23478       -1.18232       -1.11043
N          4.07360       -0.18529        1.15800
N          3.18687       -0.30242       -1.63115
