30
2sa1a1eda_76.log	Energy: -1033763.5783681
S          0.04591       -1.75663        0.17620
O         -1.32851       -2.15115        0.50294
O          0.08726       -0.90308       -1.05378
O          0.72471       -1.07028        1.30902
O          0.85566       -3.06450       -0.13603
H          1.82144       -2.77021       -0.31489
S          1.60790        1.91620        0.02683
O          2.44911        3.06473       -0.13873
O          0.17349        2.10381        0.26639
O          1.77385        0.98784       -1.23944
O          2.19820        1.04310        1.19954
H          1.08196        0.23896       -1.21568
H          1.63695        0.21207        1.30949
H         -2.68689        1.73386       -1.04895
H         -2.07499        0.10981       -1.44676
H         -4.59417        0.24565       -1.70552
H         -4.09950       -0.92937       -0.48378
H         -5.23412        1.71627        0.04744
H         -5.64036        0.27226        0.69814
H         -1.22106        1.07743        0.63960
H         -2.80469        0.94276        1.26081
C         -2.71211        0.67802       -0.76801
C         -4.13637        0.14000       -0.71422
N         -2.12374        0.56729        0.59246
N         -4.86291        0.82442        0.35722
H         -1.95379       -0.43512        0.80664
N          3.28727       -2.02570       -0.51484
H          3.95326       -2.53984       -1.08285
H          3.70832       -1.87358        0.39731
H          3.16312       -1.10809       -0.93912
