24
2sa1dma_45.log	Energy: -963490.9795417
S         -1.67782       -1.36187        0.06998
O         -0.80469       -1.07803        1.19549
O         -3.10144       -1.42612        0.22989
O         -1.38008       -0.36072       -1.10317
O         -1.13181       -2.76142       -0.49154
H         -0.41903       -0.10674       -1.11895
H         -1.77452       -3.13222       -1.11479
S          2.25317       -0.04671       -0.04472
O          1.20658        0.26572       -1.00311
O          3.47048        0.70809        0.00069
O          1.65299       -0.06840        1.40770
O          2.57806       -1.59150       -0.33109
H          0.73567       -0.45045        1.39895
H          3.39499       -1.84101        0.12677
N         -1.20615        3.57839        0.20768
C         -1.33938        2.46367        1.12847
C         -0.96909        3.15552       -1.16259
H         -2.03504        4.15995        0.25014
H         -0.38570        1.92755        1.18414
H         -1.56524        2.83490        2.13149
H         -2.12083        1.73828        0.84059
H          0.00034        2.64924       -1.22197
H         -1.73596        2.46238       -1.55172
H         -0.92705        4.03055       -1.81675
