39
2sa1eda1tma_91.log	Energy: -1107739.1555133
S         -0.50028        1.35838       -1.00314
O          0.88035        1.89128       -1.17806
O         -1.57708        2.22061       -1.49605
O         -0.57287       -0.01480       -1.70746
O         -0.69489        1.05157        0.48033
H         -2.12161        0.73166        0.69538
S          0.41705       -2.45790       -0.03508
O          0.85605       -1.76361        1.17560
O          0.54629       -3.88855       -0.06768
O         -1.07491       -2.05396       -0.35614
O          1.19984       -1.83138       -1.27147
H         -1.05007       -1.15716       -0.87639
H          0.69685       -1.01587       -1.59872
H          3.84006       -0.62811        0.95568
H          3.23154       -0.35786       -0.68488
H          5.39337        0.86590       -0.33511
H          4.05972        1.98715       -0.62892
H          5.30905        1.46300        1.96442
H          4.96329        2.89792        1.25824
H          1.56348       -0.06887        1.10434
H          2.44674        1.28782        1.61007
C          3.46677        0.13004        0.26182
C          4.46469        1.26778        0.08988
N          2.21232        0.68366        0.81818
N          4.63899        1.94587        1.37547
H          1.70915        1.25890        0.08456
N         -3.19413        0.58596        0.85907
C         -3.77199       -0.02363       -0.36403
H         -3.50685        0.60272       -1.21714
H         -3.35148       -1.02086       -0.49369
H         -4.85749       -0.09195       -0.25264
C         -3.33549       -0.29600        2.03641
H         -2.83016       -1.23939        1.82520
H         -2.86146        0.18207        2.89447
H         -4.39460       -0.47078        2.24361
C         -3.73350        1.94660        1.08448
H         -3.25119        2.37404        1.96422
H         -3.48702        2.55170        0.21034
H         -4.81499        1.89375        1.23554
