28
2sa1a1dma_43.log	Energy: -999025.9303554
S         -2.37124        0.66517       -0.18050
O         -3.34829        1.61543       -0.65233
O         -0.95298        1.15010       -0.17103
O         -2.69117        0.04800        1.14248
O         -2.38584       -0.54303       -1.24991
H         -1.72402       -0.92867        1.75862
H         -1.65250       -1.16689       -1.05814
S          1.17362       -1.34817       -0.41979
O          2.33381       -2.03939       -0.93378
O         -0.12513       -2.05426       -0.47072
O          1.38006       -0.80277        0.98765
O          1.02137       -0.02453       -1.31167
H          1.90485        0.71654        0.87848
H          0.18845        0.45753       -1.00479
N          2.45625        1.62431        0.80518
C          1.62521        2.72406        0.24735
C          3.67421        1.32131        0.00823
H          2.72471        1.85683        1.76086
H          1.43594        2.50808       -0.80256
H          0.66945        2.75046        0.76910
H          2.16496        3.66692        0.34863
H          3.35016        1.01387       -0.98603
H          4.30596        2.20905       -0.04590
H          4.20385        0.49479        0.48151
N         -0.99885       -1.64250        2.13824
H         -0.05052       -1.26063        1.94295
H         -1.06962       -2.49035        1.57530
H         -1.14258       -1.84068        3.12350
