30
2sa1a1eda_04.log	Energy: -1033769.2620790
S         -1.42278        1.59156       -0.18512
O         -0.73136        2.86338       -0.49297
O         -0.77361        0.94734        1.01057
O         -2.87009        1.63156       -0.13673
O         -1.10469        0.57095       -1.39978
H         -0.15458        0.30408       -1.38807
S          2.39629       -0.62478       -0.14825
O          2.95799        0.73252        0.03588
O          2.09797       -1.34170        1.09179
O          1.29384       -0.64676       -1.13745
O          3.59186       -1.49699       -0.80596
H          3.84768       -1.08240       -1.64146
H         -1.78696       -3.46754        1.16622
H         -2.07124       -2.10939        2.28820
H         -3.94545       -2.42463        0.57876
H         -3.21107       -0.82255        0.52642
H         -3.24583       -2.70751       -1.56645
H         -2.56400       -1.20246       -1.56312
H          0.22785       -2.07757        1.20278
H         -0.57708       -1.90364       -0.23652
C         -1.90375       -2.38403        1.24484
C         -3.02729       -1.88437        0.32866
N         -0.64870       -1.75449        0.77960
N         -2.63127       -2.08295       -1.06335
H         -0.67918       -0.71337        0.92146
N          1.41306        2.65891        1.11950
H          1.90360        3.44950        1.52558
H          0.70408        2.94813        0.39799
H          2.07707        1.96318        0.69226
H          0.85820        2.15531        1.81587
