36
2sa1dma1eda_169.log	Energy: -1083072.8532532
S         -2.02024       -1.49675       -0.32741
O         -2.32946       -0.05732       -0.03522
O         -1.27906       -1.67174       -1.57517
O         -1.48615       -2.17339        0.85567
O         -3.45369       -2.16794       -0.65661
H         -3.97922       -2.18057        0.15526
S         -0.60274        2.52496        0.26647
O         -0.46189        3.91449        0.58185
O          0.58681        1.77152       -0.13111
O         -1.26443        1.78989        1.50497
O         -1.69392        2.37100       -0.87214
H         -1.65463        0.92860        1.19495
H         -2.01562        1.43231       -0.88937
N          1.42706       -1.72969        1.28952
C          1.51710       -0.71342        2.33799
C          2.46803       -2.74845        1.40240
H          0.50110       -2.15808        1.32573
H          2.48777       -0.21567        2.26527
H          0.73176        0.03233        2.19556
H          1.41745       -1.14539        3.34344
H          3.44266       -2.27645        1.24343
H          2.47279       -3.24070        2.38520
H          2.31873       -3.51251        0.63426
H          3.13978       -1.59162       -1.69892
H          2.39034       -0.67519       -3.02683
H          4.39436        0.45717       -2.04391
H          2.93447        1.44787       -1.98921
H          4.42460        1.14106        0.11707
H          2.80536        1.13474        0.29601
H          0.58006       -1.27429       -1.63939
H          1.43583       -1.07923       -0.18495
C          2.59789       -0.67742       -1.95354
C          3.41418        0.55193       -1.56795
N          1.31682       -0.69947       -1.21171
N          3.58367        0.62825       -0.11938
H          0.91813        0.24273       -1.10904
