36
2sa1dma1eda_220.log	Energy: -1083070.1977461
S          1.18861       -1.34978        0.03081
O          2.35080       -2.10665        0.50973
O          0.47198       -0.58290        1.07146
O          1.60203       -0.42571       -1.09542
O          0.19470       -2.40406       -0.57703
H          3.12551       -0.34010       -0.97750
H         -0.70880       -1.97881       -0.72682
S         -3.02912       -0.68681        0.08341
O         -3.87010       -1.73974        0.60423
O         -2.00691       -1.10241       -0.91623
O         -3.76532        0.51898       -0.40168
O         -2.16136       -0.05130        1.30867
H         -2.78712        1.64331       -0.62574
H         -1.24974       -0.42601        1.31060
N         -2.05574        2.44752       -0.69176
C         -0.74111        1.87654       -1.08340
C         -2.03244        3.14081        0.61799
H         -2.38291        3.08359       -1.41709
H         -0.41033        1.20380       -0.29287
H         -0.86273        1.29811       -1.99794
H         -0.01693        2.68284       -1.21730
H         -1.82066        2.38998        1.37932
H         -1.26443        3.91636        0.61293
H         -3.01470        3.57518        0.80450
H          4.40742        2.24937       -0.57356
H          4.45075        2.42124        1.16819
H          5.53268        0.33700        0.72299
H          3.92550       -0.08952        1.35662
H          4.78400       -0.21693       -1.45584
H          4.21983       -1.43259       -0.44720
H          2.08619        1.51405       -0.32890
H          2.16019        1.78702        1.26281
C          3.99333        1.84314        0.35890
C          4.45721        0.39121        0.53210
N          2.56036        2.07523        0.37448
N          4.16483       -0.43591       -0.67816
