31
2sa1ma1dma_38.log	Energy: -1023685.2835002
S          2.40872       -1.34146        0.06934
O          3.02915       -2.42971        0.80485
O          3.22582       -0.10539       -0.02054
O          2.22979       -1.86877       -1.46937
O          1.01116       -1.01004        0.43931
H          2.98365       -2.43871       -1.67007
H         -0.33234       -0.95536       -0.46124
S         -1.76470        0.65423       -0.58288
O         -1.88579        0.73041        0.90542
O         -1.22065       -0.81551       -0.90149
O         -3.08692        0.66529       -1.23723
O         -0.79719        1.62716       -1.11218
H         -4.20889       -0.18385       -0.07513
H          0.68411        1.78680       -0.27840
N         -4.16675       -0.63657        0.86346
H         -3.32370       -0.13388        1.25153
C         -3.89405       -2.09017        0.72878
H         -3.74527       -2.52270        1.71751
H         -4.73208       -2.57172        0.22589
H         -2.98555       -2.19636        0.13466
H         -5.00204       -0.43186        1.40585
N          1.54180        1.99510        0.27696
C          1.17297        1.98533        1.70977
C          2.12562        3.26269       -0.20012
H          2.21521        1.20609        0.10582
H          0.42943        2.76193        1.89421
H          0.74786        1.00782        1.93476
H          2.06874        2.15917        2.30819
H          1.40657        4.06995       -0.05227
H          3.04278        3.47006        0.35343
H          2.35184        3.16410       -1.26176
