28
2sa1a1dma_51.log	Energy: -999019.3611972
S         -1.32653        1.44085       -0.10004
O         -0.85502        0.54890        0.97638
O         -0.19622        2.13369       -0.77143
O         -2.30129        0.83043       -1.00129
O         -2.17737        2.62562        0.61457
H         -1.56493        3.18449        1.11153
S          2.54140       -0.00323       -0.04371
O          3.94556       -0.20919       -0.29519
O          1.54486       -0.90174       -0.59142
O          2.30256       -0.09276        1.55231
O          2.20945        1.47517       -0.38542
H          3.04998        0.32972        1.99887
H          1.20603        1.67728       -0.51178
N         -0.99163       -2.06764       -0.03185
C         -1.01455       -2.22687       -1.50291
C         -0.31167       -3.15936        0.68990
H         -0.53807       -1.17064        0.20898
H         -1.57559       -3.13018       -1.75059
H         -1.50100       -1.34797       -1.92754
H          0.00862       -2.29729       -1.87014
H         -0.81658       -4.10332        0.47707
H          0.72800       -3.20167        0.36437
H         -0.35128       -2.95050        1.75924
H         -1.98794       -1.94634        0.30048
N         -3.61302       -1.32357        0.63111
H         -3.64810       -0.95202        1.57581
H         -4.49001       -1.80129        0.45340
H         -3.54741       -0.51733        0.00526
