37
2sa1dma1tma_48.log	Energy: -1073002.6783391
S          2.66252       -0.81170       -0.35387
O          3.67151       -1.49182       -1.13626
O          1.32817       -0.65711       -1.00350
O          2.23983       -1.84275        0.86705
O          3.09842        0.42891        0.31380
H          3.05236       -2.12614        1.30771
H          2.20303        1.76762        0.58639
S          0.14780        2.23386        0.20792
O         -0.61802        3.44859        0.19827
O          1.61572        2.57913        0.64576
O         -0.32976        1.09160        0.98309
O          0.30012        1.75562       -1.29901
H         -0.04854       -1.04998        0.21425
H          0.72515        0.85176       -1.31340
N         -0.84044       -1.63762        0.51862
C         -0.84524       -1.74731        1.99105
C         -0.74432       -2.93219       -0.18356
H         -1.72909       -1.12686        0.20420
H          0.07343       -2.23647        2.31539
H         -0.89351       -0.74210        2.40748
H         -1.71482       -2.33137        2.30045
H          0.19208       -3.41941        0.08991
H         -1.59511       -3.55763        0.09447
H         -0.74789       -2.74711       -1.25781
N         -3.18854       -0.43085       -0.33049
C         -3.61300        0.56340        0.65832
H         -3.78637        0.07146        1.62003
H         -2.82598        1.30804        0.78879
H         -4.54253        1.06780        0.35055
C         -2.89547        0.20542       -1.61667
H         -2.11646        0.95974       -1.49057
H         -2.53616       -0.54630       -2.32595
H         -3.78897        0.68773       -2.04318
C         -4.19546       -1.47804       -0.48468
H         -3.84699       -2.22464       -1.20461
H         -4.36642       -1.97145        0.47693
H         -5.15641       -1.07496       -0.84314
