39
2sa1eda1tma_36.log	Energy: -1107749.5476850
S         -0.01555        2.30586       -0.22344
O         -0.35494        2.28991        1.19599
O          1.40397        2.20731       -0.57480
O         -0.86000        1.35394       -1.02158
O         -0.49846        3.78258       -0.70841
H         -0.17102        3.92417       -1.60687
S          0.14238       -1.90220       -0.36540
O         -1.26525       -2.30783       -0.18750
O          1.11499       -2.96833       -0.55736
O          0.23064       -1.04334       -1.72697
O          0.51949       -0.93035        0.71713
H         -0.15906       -0.14866       -1.57012
H          2.06654       -0.50474        0.60289
H         -3.99880       -0.07805        2.09495
H         -3.78061        1.40443        1.11869
H         -5.43304       -0.07330        0.07025
H         -4.00563        0.05438       -0.96113
H         -5.02572       -2.26901       -0.38951
H         -3.39424       -2.15636       -0.28042
H         -1.63693        0.47221        1.78724
H         -1.96528       -0.95049        0.96154
C         -3.64607        0.32049        1.14185
C         -4.37962       -0.35708       -0.00970
N         -2.19062        0.05599        1.03587
N         -4.27065       -1.80461        0.09854
H         -1.79799        0.49596        0.17580
N          3.11843       -0.41100        0.50045
C          3.54942        0.78490        1.26378
H          3.03395        1.65400        0.85433
H          3.27342        0.64964        2.31013
H          4.63305        0.89373        1.17397
C          3.68822       -1.66913        1.04238
H          3.44448       -1.73711        2.10312
H          3.23103       -2.50629        0.51234
H          4.77218       -1.66015        0.90577
C          3.39105       -0.27179       -0.95495
H          3.00462       -1.15661       -1.46154
H          2.86840        0.61511       -1.31195
H          4.46962       -0.17958       -1.10434
