36
2sa1dma1eda_156.log	Energy: -1083076.4139428
S         -2.15904       -1.18231       -0.02990
O         -3.56441       -1.30041       -0.34125
O         -1.29244       -0.66607       -1.10491
O         -1.97741       -0.24637        1.22874
O         -1.61132       -2.52726        0.49257
H         -2.46019        0.64292        1.03986
H         -0.57893       -2.59441        0.45416
S          1.80731       -1.62154        0.06477
O          0.89435       -2.76227        0.31677
O          3.21570       -1.93707       -0.05900
O          1.39709       -1.05646       -1.40838
O          1.51301       -0.49141        0.99440
H          0.41724       -1.00113       -1.44237
H          2.32909        0.82905        0.58545
N          2.58319        1.77627        0.17958
C          3.33745        1.57309       -1.07622
C          3.27216        2.60044        1.18748
H          1.62163        2.15254       -0.02249
H          4.27913        1.07115       -0.85028
H          2.74574        0.92971       -1.72807
H          3.52675        2.53871       -1.54928
H          4.21625        2.12457        1.45655
H          3.46331        3.59609        0.78230
H          2.64105        2.67578        2.07367
H         -1.17574        3.81668        0.43034
H         -0.86933        3.62152       -1.28724
H         -3.22637        3.44842       -0.98777
H         -2.62181        1.83809       -1.40987
H         -3.31709        2.68464        1.31839
H         -4.14224        1.63912        0.37237
H         -0.39720        1.60050        0.80183
H         -0.32403        1.27282       -0.75688
C         -1.19214        3.08641       -0.38798
C         -2.62420        2.60371       -0.62767
N         -0.20834        2.04225       -0.09635
N         -3.21139        1.99454        0.57907
