30
2sa1a1eda_105.log	Energy: -1033760.3487588
S          0.65766        2.07146       -0.14949
O          0.75438        1.22476       -1.35789
O         -0.65621        2.67910        0.05731
O          1.19665        1.38168        1.05065
O          1.60785        3.35086       -0.40327
H          2.50893        3.04456       -0.57669
S          1.68346       -1.87129       -0.09492
O          0.26746       -1.81729        0.26213
O          2.36763       -3.13022       -0.14167
O          1.86750       -1.17243       -1.50096
O          2.47761       -0.92844        0.89840
H          1.43329       -0.27388       -1.50075
H          2.01752       -0.04625        0.98886
H         -2.55399        0.24831       -1.68987
H         -1.33818       -0.63573       -0.73857
H         -3.23575       -2.13721       -1.39211
H         -3.08682       -1.97093        0.35613
H         -5.11408       -0.66703       -1.30775
H         -5.32005       -1.54947        0.05087
H         -2.05964        1.56914        0.18074
H         -3.55856        0.81389        0.50198
C         -2.36971       -0.28210       -0.75197
C         -3.34912       -1.43199       -0.55991
N         -2.55211        0.67824        0.36603
N         -4.70207       -0.89077       -0.40761
H         -2.10072        0.29187        1.25807
N         -0.99274       -0.25201        2.44637
H         -0.55514       -1.08456        2.05170
H         -1.24681       -0.44077        3.40991
H         -0.26965        0.46744        2.43807
