26
2sa1eda_111.log	Energy: -998222.8469749
S         -1.33438        2.06825       -0.06763
O         -1.22548        3.46341       -0.37585
O         -0.16499        1.20574       -0.05621
O         -1.95753        1.87835        1.39758
O         -2.43547        1.45930       -1.01023
H         -2.63062        2.55785        1.55438
H         -2.44488        0.46870       -0.94178
S         -1.30803       -2.06988       -0.12103
O         -2.28807       -1.19747       -0.74268
O         -1.19350       -3.45071       -0.48842
O          0.12416       -1.43042       -0.24721
O         -1.62686       -1.94781        1.44555
H          0.07884       -0.44079       -0.15403
H         -1.16860       -2.65401        1.92550
H          4.76159        0.29820        1.44550
H          3.94480        1.75452        0.90086
H          2.31769       -0.03837        1.07677
H          2.52418        0.37841       -0.63166
H          3.75139       -1.94836        0.66680
H          2.64127       -1.94923       -0.53455
H          5.41828       -0.02161       -0.89136
H          4.86912        1.47514       -1.23275
C          4.26181        0.75605        0.58083
C          3.02536       -0.07700        0.23087
N          5.24122        0.89429       -0.48775
N          3.42084       -1.43310       -0.14306
