30
2sa1a1eda_46.log	Energy: -1033767.0231943
S          2.32777       -1.17218       -0.23137
O          1.28112       -1.21889        0.88190
O          3.30867       -0.12537        0.08163
O          2.80051       -2.48397       -0.60727
O          1.47160       -0.65480       -1.50558
H          1.26469        0.29946       -1.37825
S         -0.71041        2.01322       -0.27663
O          0.67879        1.88179       -0.76363
O         -1.65030        1.11481       -0.97323
O         -0.81012        1.96827        1.19324
O         -1.17916        3.52219       -0.62288
H         -1.12936        3.64627       -1.58096
H         -1.97424       -2.12534        1.73758
H         -2.05557       -0.36745        1.45571
H         -4.32794       -1.42328        1.23227
H         -3.77666       -0.68433       -0.27489
H         -3.85165       -3.55643        0.29150
H         -4.38549       -2.75157       -1.02919
H         -0.22000       -1.51422        0.25964
H         -1.43875       -2.31721       -0.64831
C         -2.19312       -1.34958        0.99866
C         -3.59420       -1.50922        0.42066
N         -1.20939       -1.48273       -0.10107
N         -3.66352       -2.76911       -0.31961
H         -1.28415       -0.64624       -0.70789
N          1.72200        1.18031        1.98869
H          2.13412        1.32244        2.90524
H          2.39339        1.40987        1.24656
H          1.50759        0.16490        1.79723
H          0.83772        1.70786        1.85642
