28
2sa1a1dma_63.log	Energy: -999017.9744954
S         -2.69821        0.48976       -0.02422
O         -4.04654        0.98201       -0.11278
O         -1.73412        0.79285       -1.07223
O         -2.00575        1.11001        1.29704
O         -2.74814       -1.03262        0.26547
H         -2.59561        0.97940        2.05339
H         -1.85309       -1.52840        0.06922
S          0.67098       -1.53393       -0.14047
O          1.86260       -2.32852       -0.39654
O         -0.62192       -2.24817       -0.29474
O          0.71970       -0.69820        1.06705
O          0.67454       -0.44859       -1.39681
H          3.13526       -0.58780        2.09608
H         -0.21910       -0.03885       -1.43296
N          2.33939        1.47518       -0.21126
C          3.24915        2.24992       -1.07547
C          1.44341        2.29743        0.63368
H          1.75123        0.84319       -0.78737
H          3.89450        2.87209       -0.45294
H          3.85825        1.55908       -1.65914
H          2.66713        2.88319       -1.74707
H          2.04940        2.90724        1.30626
H          0.83385        2.94000       -0.00400
H          0.79912        1.62077        1.19490
N          3.68216       -0.47972        1.24568
H          4.66516       -0.54670        1.48754
H          2.90873        0.80737        0.40022
H          3.43169       -1.28648        0.66888
