30
2sa1a1eda_122.log	Energy: -1033757.5158297
S         -1.98745       -0.38058        0.78600
O         -3.18147       -0.85276        1.44316
O         -0.68871       -0.56668        1.43508
O         -1.83702       -1.10794       -0.61822
O         -2.20069        1.11201        0.41189
H         -2.69017       -0.90343       -1.17441
H         -1.30629        1.64170        0.23331
S          1.18515        1.80375       -0.26043
O          2.27026        2.72202       -0.50127
O         -0.12863        2.42980        0.06642
O          1.01311        0.73697       -1.28455
O          1.60538        1.00536        1.10365
H          0.86999       -0.79213       -0.87524
H          0.80788        0.55091        1.44289
H          2.26292       -3.43334       -0.84753
H          2.31767       -2.20814       -2.14510
H          4.31441       -2.07654       -0.56404
H          3.37603       -0.58478       -0.65719
H          3.70085       -2.24821        1.64037
H          3.05739       -0.72944        1.52223
H          0.11749       -2.29303       -0.92103
H          0.95822       -1.82516        0.43620
C          2.24351       -2.36267       -1.06694
C          3.35146       -1.62191       -0.30993
N          0.95363       -1.81229       -0.59345
N          3.06341       -1.66034        1.12070
N         -4.05101       -0.39258       -1.80731
H         -4.35201       -0.78529       -2.69316
H         -3.96902        0.61481       -1.91615
H         -4.77847       -0.56483       -1.11801
