25
2sa1a1ma_52.log	Energy: -974356.0652848
S          2.29729       -0.31792        0.60106
O          3.63711       -0.67858        1.00476
O          1.17694       -0.60479        1.48645
O          2.22478        1.21683        0.28411
O          2.05701       -1.00944       -0.79570
H          3.08492        1.48479       -0.21609
H          1.09139       -0.94613       -1.06675
S         -1.60813       -0.43158       -0.65162
O         -2.91540       -0.97685       -1.05838
O         -0.46475       -0.89626       -1.44961
O         -1.65480        1.05174       -0.51225
O         -1.42370       -1.01116        0.83631
H         -3.23230        1.44151       -0.21380
H         -0.49779       -0.85104        1.14026
N         -4.23319        1.13299       -0.03727
H         -4.90671        1.78182       -0.43572
C         -4.43790        0.88529        1.41082
H         -5.42465        0.45349        1.57498
H         -3.66579        0.18707        1.73604
H         -4.33806        1.82504        1.95264
H         -4.21779        0.23504       -0.56125
N          4.52505        1.64520       -0.92598
H          4.50320        1.33898       -1.89373
H          5.10356        0.98991       -0.40525
H          4.96045        2.56071       -0.88988
