36
2sa1dma1eda_81.log	Energy: -1083088.6534334
S         -0.44379        2.04662       -0.48737
O         -0.35337        1.19349       -1.69795
O         -1.73518        1.85839        0.20007
O          0.74738        2.01477        0.36565
O         -0.43862        3.58157       -1.01537
H         -1.25907        3.73713       -1.50221
S          0.98183       -1.86772       -0.62495
O          2.20174       -2.38198        0.01703
O          0.20951       -2.77691       -1.46174
O          0.11750       -1.14765        0.37223
O          1.57326       -0.68212       -1.55984
H          1.78654        0.61909        0.74189
H          0.86885       -0.01119       -1.74044
N          2.64652        0.18021        1.12753
C          2.58232        0.28592        2.59875
C          3.80919        0.84248        0.49936
H          2.62276       -0.82052        0.84027
H          2.51427        1.33896        2.87427
H          1.69103       -0.24244        2.93620
H          3.47452       -0.16453        3.03604
H          3.76241        1.91156        0.70905
H          4.72947        0.41318        0.89806
H          3.74721        0.67032       -0.57488
H         -4.21479       -1.62220       -0.38596
H         -2.83877       -2.72142       -0.05741
H         -3.93035       -1.97786        2.03868
H         -2.25553       -1.42153        1.95523
H         -4.22287        0.21704        2.54393
H         -3.04813        0.77150        1.54363
H         -2.23862       -1.02825       -1.67596
H         -2.53681        0.18693       -0.57397
C         -3.22050       -1.70447        0.05784
C         -3.25781       -1.28654        1.52302
N         -2.29749       -0.80858       -0.68332
N         -3.77763        0.07021        1.64739
H         -1.31762       -0.91167       -0.28502
