39
2sa1eda1tma_121.log	Energy: -1107722.5822477
S         -2.41389       -1.28615       -0.48071
O         -1.24820       -1.43674       -1.34729
O         -2.34942       -2.02221        0.78970
O         -2.80553        0.14811       -0.29934
O         -3.68770       -1.96153       -1.21115
H         -3.82955       -1.51090       -2.05499
S         -0.37880        2.44491        0.52277
O          0.40892        3.58595        0.13090
O          0.28904        1.28721        1.09657
O         -1.41917        2.87909        1.67506
O         -1.28276        2.04870       -0.66466
H         -1.85025        3.70673        1.41634
H         -1.89426        1.19929       -0.50231
H          1.01497       -3.03622        0.77207
H          1.03234       -1.51023       -0.15029
H          3.30856       -2.03822        0.75174
H          2.66092       -0.52323        1.36898
H          2.85073       -3.03791        2.86592
H          3.29994       -1.53481        3.32497
H         -0.81555       -1.77155        1.53106
H          0.42484       -1.63708        2.71192
C          1.17128       -1.95618        0.83420
C          2.53840       -1.60960        1.40369
N          0.13728       -1.40996        1.75366
N          2.60843       -2.05496        2.79876
H          0.09952       -0.38271        1.65067
N          2.61090       -0.08099       -1.48388
C          3.29266        1.12817       -1.05420
H          2.58559        1.79945       -0.56046
H          4.08381        0.87450       -0.34002
H          3.75647        1.67356       -1.89832
C          3.53530       -1.01325       -2.10142
H          4.34071       -1.26072       -1.40118
H          3.01111       -1.93787       -2.36432
H          3.99796       -0.60795       -3.02202
C          1.50505        0.22819       -2.37890
H          0.96216       -0.68576       -2.63367
H          0.80037        0.89934       -1.88382
H          1.84868        0.71078       -3.31353
