39
2sa1eda1tma_101.log	Energy: -1107735.6704386
S         -2.12879       -1.01169       -0.17090
O         -3.41369       -1.65067        0.11785
O         -1.13253       -1.83436       -0.87147
O         -2.32780        0.31376       -0.85285
O         -1.53632       -0.66243        1.27701
H         -3.63883        0.85181       -0.40323
H         -0.58496       -0.38044        1.19789
S          2.01081       -0.71439        0.18984
O          3.27654       -1.01428        0.87145
O          1.01857        0.00983        1.00468
O          2.26739       -0.00586       -1.11013
O          1.40065       -2.13260       -0.17272
H          3.73808        0.09542       -1.32280
H          0.45588       -2.03814       -0.47904
H          6.16655        1.87300       -1.19810
H          4.48759        2.32397       -1.62025
H          5.14768        2.86682        0.78572
H          3.72821        1.82726        0.65221
H          6.08300        1.19363        1.99097
H          4.82735        0.16585        1.64478
H          5.19877       -0.00808       -2.24447
H          5.22361       -0.32044       -0.60141
C          5.11004        1.68059       -0.99480
C          4.81156        1.86662        0.49668
N          4.81752        0.26678       -1.34317
N          5.49645        0.82544        1.25541
N         -4.59714        1.23229       -0.04264
C         -4.61694        0.99787        1.42239
H         -4.52920       -0.07492        1.59495
H         -3.75524        1.49657        1.86719
H         -5.54636        1.39256        1.84163
C         -4.64250        2.67059       -0.37516
H         -3.80478        3.16989        0.11305
H         -4.54832        2.78832       -1.45524
H         -5.58669        3.10171       -0.03205
C         -5.65165        0.45587       -0.73536
H         -5.56690        0.63228       -1.80831
H         -5.47629       -0.60066       -0.52980
H         -6.63490        0.77282       -0.37706
