33
2sa1ma1eda_21.log	Energy: -1058429.1345570
S          0.00896       -2.20415       -0.41503
O          1.18043       -1.77277        0.35720
O         -1.18475       -2.53028        0.39418
O         -0.29899       -1.32051       -1.55839
O          0.49920       -3.61144       -1.05126
H         -0.22826       -3.98239       -1.56913
S         -1.12991        2.00965       -0.56621
O          0.07410        2.30437       -1.37238
O         -2.10133        3.07312       -0.42019
O         -1.94208        0.84025       -1.35556
O         -0.73073        1.34892        0.72318
H         -1.33091        0.08657       -1.53712
H         -1.93352        0.34997        1.16883
N         -2.69768       -0.38514        1.18090
H         -3.31754       -0.12448        0.41273
C         -3.39084       -0.48166        2.47961
H         -4.16330       -1.24908        2.43113
H         -2.66050       -0.74964        3.24223
H         -3.83724        0.48234        2.72261
H         -2.21748       -1.27217        0.90930
H          2.65898        2.38146        0.74489
H          1.57831        1.22162        1.53537
H          3.93810        0.99772        2.40513
H          3.40873       -0.47245        1.57762
H          5.25629        1.52347        0.49654
H          5.41095       -0.10510        0.54292
H          1.35869        1.32724       -0.90313
H          2.94667        0.68517       -0.99217
C          2.45169        1.31774        0.89008
C          3.67105        0.57914        1.42610
N          2.09361        0.74691       -0.42966
N          4.74498        0.64968        0.43349
H          1.72260       -0.21293       -0.28987
