31
2sa1ma1dma_13.log	Energy: -1023695.4382600
S         -2.59791       -0.07723       -0.13069
O         -2.48718        0.95500       -1.16479
O         -2.46678       -1.46212       -0.63184
O         -1.74569        0.19092        1.05122
O         -4.09618        0.02050        0.49192
H         -4.72596       -0.21613       -0.20263
S          2.59588        0.36880        0.03991
O          2.47379        1.61135        0.82720
O          2.99720       -0.81350        0.80030
O          1.40925        0.14203       -0.82712
O          3.75999        0.64399       -1.06372
H          4.59705        0.75939       -0.59364
N         -0.16102        2.25331        0.13842
H         -0.03034        1.82527       -0.78246
H         -0.72947        1.54958        0.65821
C         -0.85097        3.55633        0.05971
H         -0.98289        3.95035        1.06699
H         -0.25105        4.24813       -0.53122
H         -1.82094        3.39742       -0.41061
H          0.78704        2.28568        0.55600
N          0.14007       -2.18078       -0.05662
C          0.82429       -3.22539       -0.84562
C          0.22318       -2.37533        1.41081
H          0.57679       -1.26595       -0.30420
H          0.38096       -4.19716       -0.62342
H          0.70699       -2.99750       -1.90498
H          1.88302       -3.22046       -0.58276
H         -0.21074       -3.34419        1.66310
H          1.27125       -2.32243        1.70659
H         -0.34729       -1.57580        1.88341
H         -0.85931       -2.08803       -0.33326
