31
2sa1a1tma_23.log	Energy: -1023681.9740655
S         -0.98134       -0.91655       -0.02873
O          0.24762       -1.46995        0.57121
O         -2.03098       -1.88198       -0.34121
O         -1.50206        0.24169        0.76829
O         -0.57457       -0.30632       -1.45773
H          0.23599        0.24625       -1.35140
S          2.78577        0.73533       -0.10141
O          3.76200        1.70814        0.33626
O          1.65390        1.16813       -0.91034
O          3.49220       -0.40771       -0.91511
O          2.26577        0.01692        1.19886
H          4.37655       -0.64247       -0.44513
H          1.46571       -0.56698        0.99315
N          5.72225       -0.78104        0.44447
H          6.57258       -1.01414       -0.05717
H          5.61597       -1.43281        1.21529
H          5.82270        0.15389        0.83318
N         -4.01899        0.52063        0.18797
C         -4.72243       -0.60098        0.85577
H         -4.26972       -1.53158        0.51268
H         -4.58290       -0.50718        1.93323
H         -5.78645       -0.56240        0.60870
C         -4.46640        1.84069        0.68110
H         -4.30521        1.88958        1.75850
H         -3.87546        2.61744        0.19479
H         -5.52646        1.97972        0.45489
C         -4.10165        0.41715       -1.29052
H         -3.48903        1.20478       -1.73013
H         -3.70023       -0.55244       -1.58597
H         -5.14322        0.52502       -1.60333
H         -2.97271        0.42309        0.44375
