33
2sa1ma1eda_105.log	Energy: -1058416.9586958
S         -0.67026        2.02782        0.06105
O         -1.82749        1.61185        0.87635
O          0.61103        2.11184        0.74733
O         -0.58934        1.24006       -1.20985
O         -0.97930        3.54996       -0.38284
H         -1.91121        3.61543       -0.63340
S         -2.13408       -1.63682       -0.25189
O         -0.72267       -1.63489        0.12398
O         -2.83036       -2.87420       -0.45086
O         -2.93911       -0.80502        0.82462
O         -2.28031       -0.77555       -1.57537
H         -2.53307        0.09898        0.92836
H         -1.68928        0.02569       -1.51658
N          1.32397       -0.55019        2.01307
H          1.08482        0.42432        2.18599
C          2.23922       -1.07301        3.02767
H          1.83980       -1.01589        4.04735
H          2.46529       -2.11959        2.80746
H          3.17690       -0.51081        2.99777
H          0.44795       -1.06851        1.99961
H          2.81305        0.79886       -2.04411
H          2.75571        1.39470       -0.37575
H          5.00707        0.41794       -0.89943
H          4.18735       -0.50599        0.36297
H          4.45487       -1.32882       -2.43455
H          4.81602       -2.17171       -1.08085
H          0.82992        0.03222       -1.01620
H          1.86318       -1.29428       -1.14479
C          2.86421        0.50098       -0.99280
C          4.15766       -0.24927       -0.70137
N          1.71851       -0.38466       -0.70090
N          4.17647       -1.49142       -1.47257
H          1.62238       -0.52938        0.36462
