39
2sa1eda1tma_30.log	Energy: -1107748.7739470
S          0.54948        2.09052       -0.53838
O          0.93692        1.05655       -1.52292
O         -0.88326        2.39374       -0.52743
O          1.13993        1.86219        0.79609
O          1.31089        3.44658       -1.01778
H          0.95033        3.69918       -1.87871
S         -0.95675       -1.97546       -0.78270
O         -2.07312       -1.06368       -1.14327
O         -0.51167       -1.66427        0.61969
O         -1.16538       -3.38297       -1.04492
O          0.28384       -1.54702       -1.71558
H          0.36201       -0.56248       -1.72866
H          3.00605       -2.09266       -0.26967
H          2.67070       -0.50387       -0.98539
H          5.10190       -0.71921       -0.36713
H          4.29846        0.57026        0.53476
H          5.01372       -2.06082        1.60264
H          5.32932       -0.58147        2.22389
H          1.07775       -1.24816        0.82713
H          2.41403       -1.02437        1.87454
C          2.99472       -1.01649       -0.08022
C          4.34924       -0.51567        0.40496
N          1.99300       -0.75156        0.98088
N          4.64647       -1.12051        1.70548
H          1.75523        0.26457        1.00791
N         -2.90719        0.35102        0.95377
C         -3.75613        1.43330        0.39920
H         -3.09923        2.21663        0.02287
H         -4.34689        1.02191       -0.41980
H         -4.41177        1.81385        1.18604
C         -3.70807       -0.80651        1.42330
H         -4.29085       -1.18952        0.58609
H         -3.01889       -1.58028        1.76270
H         -4.36267       -0.48476        2.23657
C         -1.99352        0.84348        2.01409
H         -1.32700        0.02594        2.28613
H         -1.41386        1.67510        1.61722
H         -2.59206        1.16051        2.87208
H         -2.34845       -0.03147        0.14627
