30
2sa1a1eda_11.log	Energy: -1033766.7244558
S         -2.05043       -1.32755        0.14348
O         -1.44089       -2.57012        0.67192
O         -2.13537       -0.25479        1.15809
O         -1.48815       -0.90015       -1.13852
O         -3.58970       -1.70568       -0.21473
H         -4.01878       -2.01864        0.59331
S          2.69518        0.04187        0.10607
O          2.88825       -1.31196        0.67153
O          1.84313        0.05635       -1.08711
O          2.32529        1.04783        1.12428
O          4.14707        0.50529       -0.45693
H          4.75902        0.55490        0.29003
H          0.26724        2.84340       -0.91915
H         -0.39933        1.22118       -1.20933
H         -2.06300        3.00229       -1.84312
H         -2.64663        1.97779       -0.52875
H         -1.66199        4.72004       -0.24891
H         -3.01996        4.04519        0.36369
H          0.67364        1.56066        1.00730
H         -0.61912        2.62075        1.34793
C         -0.51702        2.13794       -0.63309
C         -1.90617        2.73959       -0.78976
N         -0.31858        1.80584        0.80298
N         -2.04941        3.86587        0.13748
H         -0.93524        1.00446        1.05723
N          0.91701       -2.63536       -0.70861
H          0.73487       -1.80329       -1.28478
H          1.12527       -3.43705       -1.29579
H          1.72909       -2.37847       -0.10471
H          0.05790       -2.79613       -0.13178
