33
2sa1ma1eda_205.log	Energy: -1058399.1684196
S         -3.00754       -0.05900       -0.20076
O         -4.34665        0.21154       -0.64923
O         -1.86292        0.48399       -0.91731
O         -2.82549        0.52198        1.28816
O         -2.86101       -1.59648       -0.01701
H         -3.62296        0.32732        1.80172
H         -1.89097       -1.89908        0.13674
S          0.70584       -1.52109        0.11807
O          1.97611       -2.26129       -0.04399
O         -0.47183       -2.39747        0.29110
O          0.80407       -0.44861        1.11960
O          0.53390       -0.80683       -1.31873
H          3.28640        0.12242        1.37922
H         -0.30216       -0.29225       -1.30871
N         -0.14675        3.24716       -0.41378
H         -0.39902        4.19282       -0.68136
C         -0.48393        3.00540        0.99252
H         -1.53205        3.21441        1.24621
H         -0.29264        1.95592        1.23063
H          0.15838        3.61982        1.63077
H         -0.69473        2.62209       -0.99821
H          2.62337        0.39480       -1.56929
H          3.71861        1.77803       -1.67326
H          4.85521       -0.43886       -1.04254
H          5.15478        0.93268        0.06808
H          3.16333       -1.27739        0.46349
H          4.55994       -0.95312        1.37001
H          2.09810        2.62208       -0.29057
H          1.74167        1.21372        0.37136
C          3.26191        1.06574       -0.98051
C          4.39656        0.26221       -0.34248
N          2.53619        1.77505        0.06668
N          3.83704       -0.52344        0.79722
