31
2sa1ma1dma_05.log	Energy: -1023695.4659771
S          2.27227        0.32959       -0.31715
O          1.68616        1.66855       -0.20496
O          2.78054       -0.28097        0.91119
O          1.39733       -0.62450       -1.06926
O          3.55078        0.59765       -1.27762
H          4.14653       -0.15991       -1.20681
S         -2.08157       -0.84817       -0.36452
O         -3.44683       -0.40845       -0.55860
O         -1.42532       -0.33158        0.88207
O         -1.82870       -2.30345       -0.49571
O         -1.26136       -0.12204       -1.56328
H         -0.39369       -2.73237        0.17109
H         -0.29736       -0.30788       -1.47497
N          0.60497       -2.75788        0.51970
H          1.03392       -3.64213        0.25750
C          0.67488       -2.51014        1.98084
H          1.71466       -2.36674        2.27053
H          0.10334       -1.60445        2.17781
H          0.22887       -3.35428        2.50671
H          1.07296       -1.99428       -0.01299
N         -0.87625        2.26920        0.55120
C         -0.71007        3.00158        1.82171
C         -1.81799        2.88932       -0.40680
H          0.05881        2.13669        0.11875
H         -1.67514        3.07039        2.32572
H         -0.00259        2.45565        2.44580
H         -0.32247        4.00119        1.61926
H         -2.80675        2.94027        0.05060
H         -1.46666        3.89061       -0.66166
H         -1.86295        2.25908       -1.29479
H         -1.18536        1.27997        0.75284
