36
2sa1dma1eda_119.log	Energy: -1083081.8904815
S          2.13538       -1.66251        0.36668
O          0.90634       -2.46278        0.12825
O          3.34597       -2.41286        0.60271
O          2.39209       -0.88130       -1.05164
O          1.87659       -0.57063        1.34923
H          1.51919       -0.62877       -1.41861
H          1.35999        0.83412        0.83504
S         -1.38857        0.01121       -0.85261
O         -0.11331        0.22973       -1.55405
O         -2.59876        0.06137       -1.69760
O         -1.39237       -1.45666       -0.26094
O         -1.54082        0.93658        0.32194
H         -0.45443       -1.82317       -0.06884
H         -3.31113        0.73559        0.78897
N         -4.20581        0.32691        0.44601
C         -5.32600        1.27738        0.58196
C         -4.41420       -0.99603        1.08320
H         -3.93751        0.18468       -0.55595
H         -5.51067        1.47036        1.63965
H         -5.06340        2.20579        0.07497
H         -6.21851        0.84809        0.12507
H         -4.56994       -0.85718        2.15378
H         -5.28747       -1.47197        0.63571
H         -3.52269       -1.59863        0.90310
H          1.94819        3.74773        0.54210
H          2.11894        2.79823        2.04594
H          4.28603        3.02251        0.70914
H          3.79672        1.35476        1.02722
H          4.21951        2.46247       -1.47739
H          3.49775        1.01124       -1.16966
H          0.17446        2.01015        0.68734
H          1.21950        1.73933       -0.55793
C          2.17196        2.76119        0.95562
C          3.53719        2.26192        0.47008
N          1.15368        1.80890        0.46472
N          3.47599        2.00718       -0.96687
