33
2sa1ma1eda_154.log	Energy: -1058410.1729026
S         -1.24867       -1.43026       -0.34398
O         -2.45151       -2.23689       -0.53176
O          0.03944       -2.11588       -0.54590
O         -1.32236       -0.14405       -1.10780
O         -1.31359       -1.00682        1.21089
H         -2.84072        0.14610       -1.23265
H         -0.46260       -0.57977        1.47390
S          2.27916        0.09187        0.98179
O          3.56804        0.30099        1.60007
O          1.08165        0.11056        1.81517
O          2.04007        1.12011       -0.16851
O          2.37929       -1.29466        0.22530
H          2.82015        1.02748       -0.87967
H          1.47277       -1.60365       -0.08895
N          3.99807        0.75349       -1.80301
H          4.04264       -0.26106       -1.86493
C          5.23734        1.29087       -1.21529
H          6.12877        1.04349       -1.80108
H          5.14929        2.37641       -1.13911
H          5.34131        0.89052       -0.20535
H          3.85458        1.10426       -2.74520
H         -5.25911        0.49176        0.49227
H         -3.74580       -0.36980        0.89274
H         -3.71755        1.98217        1.79530
H         -2.44417        1.68964        0.60831
H         -4.85995        3.27661        0.19177
H         -3.32604        3.57362       -0.28935
H         -4.33504       -0.59673       -1.45809
H         -4.22370        1.09013       -1.60844
C         -4.17585        0.46847        0.34363
C         -3.52611        1.79045        0.73325
N         -3.90628        0.25664       -1.10472
N         -4.01508        2.84236       -0.16308
