26
2sa1eda_47.log	Energy: -998254.7706908
S         -0.90617        1.68991       -0.03344
O         -1.67111        2.80870       -0.53567
O         -0.41488        0.73182       -1.06370
O          0.49577        2.34428        0.58369
O         -1.44353        0.96108        1.12921
H          0.65876        3.19202        0.14754
H         -1.12377       -0.71457        0.94270
S          2.50243       -0.63354       -0.06606
O          1.71354       -1.86236       -0.14220
O          3.93088       -0.72316       -0.00775
O          2.12108        0.33470       -1.24062
O          1.91868        0.11590        1.22247
H          1.12092        0.47560       -1.28551
H          1.68063        1.05309        1.04366
H         -3.46741       -2.64701        0.80496
H         -3.73455       -2.69597       -0.92360
H         -1.42696       -3.26341       -0.58093
H         -1.44042       -1.62075       -1.26508
H         -1.09007       -2.25863        1.59126
H          0.09561       -1.78695        0.50969
H         -3.42393       -0.21177        0.64148
H         -3.71332       -0.31215       -0.96729
C         -3.23301       -2.12728       -0.13377
C         -1.72848       -2.22758       -0.40414
N         -3.81304       -0.80246       -0.08554
N         -0.91698       -1.72180        0.74230
