27
2sa1tma_02.log	Energy: -988186.6111425
S         -2.41221        0.25455        0.00234
O         -3.77435        0.66730        0.16474
O         -1.40715        1.19040       -0.48864
O         -1.90585       -0.33104        1.38177
O         -2.41785       -1.01257       -0.95588
H         -1.50843       -1.38509       -1.03006
S          1.33847       -1.64491        0.09593
O          1.75557       -2.82298        0.82888
O          2.27849       -1.03495       -0.83771
O          0.06642       -2.17734       -0.84940
O          0.66674       -0.58922        0.92547
H          0.05688       -3.14294       -0.79525
H         -0.92339       -0.50356        1.32744
N          1.48538        1.89441        0.00928
C          0.76606        2.99148        0.70628
H         -0.26995        2.99213        0.37144
H          0.80591        2.80690        1.78034
H          1.25562        3.93900        0.47196
C          2.89129        1.77437        0.47740
H          2.88636        1.59803        1.55332
H          3.34956        0.92563       -0.02931
H          3.41978        2.70218        0.24911
C          1.41207        2.02970       -1.47066
H          1.88471        1.15192       -1.91099
H          0.36253        2.07069       -1.75782
H          1.93322        2.94353       -1.76424
H          1.01652        0.99619        0.26483
