28
2sa1a1dma_03.log	Energy: -999033.7136251
S          2.48708       -0.42581       -0.16960
O          2.23148       -1.70041       -0.87282
O          2.29174        0.76352       -1.02660
O          1.80945       -0.32776        1.13019
O          4.06185       -0.43608        0.22341
H          4.57801       -0.49626       -0.59215
S         -2.52962       -0.41915       -0.13077
O         -2.71088        0.54378       -1.21207
O         -2.37358       -1.82557       -0.56529
O         -1.49131       -0.03805        0.85980
O         -3.88412       -0.37924        0.77138
H         -4.63812       -0.52202        0.18314
N          0.10473        2.05949        0.07472
C          0.64302        2.70618        1.29120
C         -0.63371        2.96359       -0.83316
H          0.89886        1.61473       -0.43371
H         -0.18434        3.11160        1.87529
H          1.17840        1.94775        1.86233
H          1.32534        3.50606        0.99945
H         -1.45791        3.42356       -0.28659
H          0.04816        3.73036       -1.20426
H         -1.04104        2.37370       -1.65333
H         -0.51914        1.27358        0.36703
N          0.01856       -2.52779        0.54156
H         -0.90446       -2.43871        0.05322
H          0.11306       -1.70502        1.15122
H          0.07303       -3.38354        1.08550
H          0.81483       -2.45845       -0.12742
