36
2sa1dma1eda_235.log	Energy: -1083059.5464631
S         -3.27894       -0.07653       -0.11812
O         -2.19711        0.54797        0.63071
O         -4.29955        0.73414       -0.72679
O         -2.71365       -1.04314       -1.19339
O         -3.95501       -1.06029        0.96295
H         -1.84884       -1.51336       -0.86764
H         -4.76179       -1.43934        0.58493
S          0.53273       -1.41982        0.13215
O         -0.65746       -2.18565       -0.31472
O          0.95999       -0.37981       -0.80502
O          0.10841       -0.69997        1.50781
O          1.64224       -2.30439        0.55861
H         -0.73590       -0.22396        1.35250
H          3.02098       -1.64822        0.17526
N          3.97471       -1.22221       -0.04516
C          4.20204       -0.06788        0.86475
C          4.02207       -0.85896       -1.48397
H          4.65403       -1.95676        0.14959
H          3.55724        0.75512        0.53206
H          3.95707       -0.37473        1.88184
H          5.24818        0.23799        0.80008
H          3.22331       -0.14084       -1.66408
H          4.99532       -0.42313       -1.71522
H          3.85059       -1.75694       -2.07749
H          1.17756        1.67724        1.12374
H          2.12953        3.11273        1.49976
H         -0.25599        3.66807        1.34190
H          0.66798        4.50780        0.08696
H         -0.92573        2.08863       -0.37723
H         -1.19394        3.57901       -0.98423
H          1.77699        1.91862       -1.14030
H          2.71379        3.21150       -0.83512
C          1.52530        2.63500        0.71898
C          0.31371        3.51968        0.40899
N          2.37817        2.33948       -0.43343
N         -0.46613        2.94330       -0.67934
