27
2sa1tma_26.log	Energy: -988175.5164613
S         -2.42345        0.33462       -0.01356
O         -1.47203        1.27044       -0.60353
O         -1.86309       -0.10120        1.40579
O         -3.79465        0.71686        0.16561
O         -2.40252       -1.00375       -0.85098
H         -1.46319       -1.30631       -1.00550
S          1.12671       -1.61759       -0.02357
O          2.48703       -1.37574       -0.49357
O          0.13196       -1.74384       -1.11009
O          1.11643       -3.03234        0.76966
O          0.69218       -0.67131        1.03719
H          1.34074       -3.73499        0.14387
H         -0.90294       -0.36676        1.33093
N          1.95837        2.36781       -0.18228
C          0.81339        2.84295        0.65382
H          1.20424        3.47765        1.44987
H          0.11259        3.38774        0.02285
H          0.31341        1.96528        1.05981
C          1.47945        1.63207       -1.39869
H          1.00738        2.35282       -2.06660
H          2.32908        1.14292       -1.87236
H          0.73429        0.90259       -1.09231
C          2.92542        1.57488        0.63992
H          3.72911        1.21955       -0.00345
H          3.31270        2.22407        1.42651
H          2.39207        0.72308        1.06093
H          2.45760        3.19302       -0.51534
