30
2sa1a1eda_57.log	Energy: -1033763.2501493
S         -2.54649       -0.76658       -0.08178
O         -3.12128        0.21706       -0.99946
O         -2.25795       -2.07690       -0.71494
O         -1.41625       -0.29354        0.73796
O         -3.69177       -1.06226        1.04346
H         -4.52533       -1.22409        0.58146
S          2.74580       -0.37449       -0.15807
O          2.48678       -1.48268       -1.09732
O          2.90773        0.93821       -0.77657
O          1.80157       -0.38874        0.99230
O          4.15424       -0.72780        0.58043
H          4.85781       -0.67475       -0.08077
H          0.45307        3.85379        0.67312
H          1.57066        2.69286       -0.11699
H         -0.27367        3.38188       -1.67506
H         -0.36839        1.66436       -1.29872
H         -2.21081        3.71380       -0.42113
H         -2.45981        2.09079       -0.65738
H          0.49496        2.19003        2.22961
H         -0.75801        1.63857        1.26596
C          0.55067        2.85846        0.23323
C         -0.48561        2.66561       -0.87247
N          0.25396        1.85542        1.30029
N         -1.81642        2.79074       -0.29499
H          0.77721        0.96242        1.14252
N          0.26156       -2.61926        0.07559
H         -0.69897       -2.54489       -0.34736
H          1.02271       -2.41751       -0.60122
H          0.33754       -1.86545        0.77181
H          0.40347       -3.52408        0.51412
