26
2sa1eda_42.log	Energy: -998255.9761428
S          1.32113       -1.51377        0.05534
O          1.43778       -1.10002       -1.34980
O          2.05817       -0.68408        1.01320
O         -0.09025       -1.73938        0.48482
O          2.00144       -2.97889        0.04648
H          1.95566       -3.34421        0.94114
S         -2.48618        0.21397       -0.07091
O         -3.84000        0.66404        0.05779
O         -1.53786        0.98838       -0.86096
O         -1.89278        0.01982        1.39105
O         -2.51328       -1.27083       -0.63779
H         -1.06672       -0.51960        1.31927
H         -1.61102       -1.65770       -0.54807
H          2.89323        1.17739       -0.41396
H          2.93098        2.65269       -1.40940
H          2.89621        3.06332        1.11623
H          1.56378        3.85487        0.26318
H          1.30614        1.29643        1.69208
H          0.46771        2.70540        1.96412
H          1.16344        0.60770       -1.63798
H          0.32970        1.60942       -0.62553
C          2.33983        2.07376       -0.69877
C          1.97280        2.87989        0.55078
N          1.08241        1.60448       -1.34758
N          0.94320        2.14671        1.26822
H          0.77079        2.17875       -2.12701
