31
2sa1ma1dma_61.log	Energy: -1023676.8859489
S          2.32402       -0.88592        0.19987
O          1.14886       -1.69264        0.50673
O          3.62663       -1.51617        0.16172
O          2.13117       -0.20543       -1.21308
O          2.33930        0.30505        1.20520
H          1.18691        0.11495       -1.33526
H          3.30740        0.75136        1.19273
S         -1.53910        0.15207       -0.80951
O         -0.33789        0.56081       -1.55252
O         -2.78549        0.16417       -1.60099
O         -1.36933       -1.40609       -0.44288
O         -1.70337        0.86530        0.48358
H         -0.47544       -1.55705       -0.05008
H         -3.39298        0.75927        0.88513
N          4.72298        1.23333        1.03048
H          5.05892        1.83212        1.77840
C          4.87706        1.88112       -0.28327
H          5.91742        2.13462       -0.51082
H          4.49625        1.20464       -1.05054
H          4.27331        2.79044       -0.30389
H          5.25739        0.36788        1.06167
N         -4.33321        0.40587        0.58135
C         -5.40925        1.37895        0.84069
C         -4.53913       -0.94278        1.15601
H         -4.12762        0.30909       -0.43808
H         -5.51925        1.52009        1.91683
H         -5.14667        2.32610        0.36971
H         -6.34438        1.00505        0.42094
H         -4.62825       -0.86079        2.24003
H         -5.44669       -1.37917        0.73664
H         -3.67442       -1.55517        0.89532
