34
2sa1ma1tma_28.log	Energy: -1048348.3190338
S          0.83025        0.67385        0.48329
O         -0.40055        0.86139        1.29755
O          1.73349        1.82205        0.42998
O          1.52655       -0.58634        0.87531
O          0.34093        0.47463       -1.01893
H         -0.52547       -0.05411       -1.04513
S         -2.87125       -1.21243       -0.10377
O         -3.48903       -2.46119       -0.47779
O         -1.96423       -0.60686       -1.12910
O         -3.81406       -0.16255        0.39076
O         -1.91549       -1.57235        1.14902
H         -3.21325        1.25927        0.34543
H         -1.38359       -0.78629        1.38785
N         -2.61533        2.15388        0.29244
H         -3.00839        2.86992        0.89820
C         -2.48741        2.60872       -1.11153
H         -1.74357        3.40275       -1.17839
H         -2.17742        1.74835       -1.70344
H         -3.45613        2.96360       -1.46329
H         -1.69613        1.85614        0.68026
N          3.90797       -0.53041       -0.19068
C          4.69936        0.38229        0.67015
H          4.15544        1.32432        0.75039
H          4.79711       -0.06592        1.65932
H          5.68620        0.53463        0.22623
C          4.47429       -1.89642       -0.24169
H          4.53473       -2.29452        0.77155
H          3.81617       -2.52850       -0.83848
H          5.46952       -1.86268       -0.69133
C          3.70356        0.03999       -1.54709
H          3.02888       -0.61057       -2.10382
H          3.24175        1.02154       -1.43873
H          4.66835        0.11634       -2.05423
H          2.93373       -0.59893        0.25947
