31
2sa1ma1dma_41.log	Energy: -1023686.5164873
S         -2.42785       -1.17765       -0.21871
O         -3.22162       -2.31262       -0.62236
O         -1.18062       -0.93197       -1.02175
O         -3.16812        0.10895       -0.08635
O         -1.88885       -1.54132        1.26294
H         -2.17068        1.34649       -0.15596
H         -1.20087       -0.89673        1.52333
S          1.45898        0.01524        0.71856
O          2.62274       -0.33854        1.55394
O          0.23499        0.38219        1.46585
O          1.80800        1.06559       -0.28622
O          1.14799       -1.30977       -0.09197
H          3.53739        0.75504       -0.68527
H          0.21454       -1.25025       -0.50841
N          4.33832        0.13371       -0.42802
H          5.21766        0.64453       -0.42850
C          4.35973       -1.07556       -1.29161
H          5.13566       -1.75478       -0.94072
H          3.38255       -1.55322       -1.20956
H          4.54957       -0.78222       -2.32337
H          4.04482       -0.12399        0.54456
N         -1.37325        2.05119       -0.16902
C         -1.76088        3.27899        0.54847
C         -0.94319        2.25614       -1.56800
H         -0.62712        1.56722        0.35937
H         -2.62146        3.72893        0.05126
H         -2.02698        3.01763        1.57279
H         -0.92507        3.98083        0.55203
H         -1.74689        2.75543       -2.11204
H         -0.03380        2.85776       -1.58361
H         -0.75281        1.27418       -2.00007
