26
2sa1eda_31.log	Energy: -998258.1789646
S          0.96308        1.78428        0.05892
O          1.61056        2.96249        0.59497
O          1.55381        1.19413       -1.15555
O          0.61361        0.73423        1.04913
O         -0.52373        2.32034       -0.47415
H         -0.66341        3.20273       -0.10344
S         -2.36399       -0.67568       -0.01423
O         -1.28072       -1.22384       -0.82368
O         -3.57217       -1.41768        0.18594
O         -1.78031       -0.28877        1.40006
O         -2.77691        0.72663       -0.64069
H         -0.86690        0.10906        1.30560
H         -1.98206        1.29953       -0.73104
H          2.66877       -3.12229       -0.99412
H          3.45605       -1.61840       -1.54443
H          3.85634       -2.11491        0.92185
H          3.07237       -0.56240        0.63894
H          1.95384       -2.79642        2.01114
H          1.38201       -1.24938        1.88059
H          1.02858       -1.86181       -2.16896
H          0.67418       -1.75442       -0.55632
C          2.69564       -2.03581       -0.88136
C          2.92783       -1.64512        0.58138
N          1.36941       -1.50538       -1.27887
N          1.76778       -2.03585        1.37211
H          1.38051       -0.45492       -1.31604
