31
2sa1a1tma_14.log	Energy: -1023687.1856822
S         -2.81101       -0.30436       -0.01706
O         -3.04796        1.11423        0.24545
O         -1.80423       -0.59452       -1.05848
O         -2.57484       -1.11042        1.20839
O         -4.18249       -0.88729       -0.67957
H         -4.92579       -0.55255       -0.16029
S          2.58211       -0.81594       -0.13411
O          2.25894       -1.80763       -1.15715
O          2.68816        0.57516       -0.64091
O          1.73777       -0.89907        1.07766
O          4.05845       -1.17926        0.43948
H          4.65696       -1.27810       -0.31349
N         -0.38500       -2.49485        0.37561
H          0.45972       -2.00634        0.74853
H         -0.57656       -2.10464       -0.55737
H         -0.23567       -3.49787        0.33183
H         -1.22660       -2.22435        0.92984
N          0.67241        2.22244        0.03066
C         -0.01833        1.75143        1.26080
H         -0.37199        0.73681        1.09785
H          0.69864        1.75165        2.08135
H         -0.86853        2.40254        1.46749
C          1.32222        3.53688        0.23748
H          2.03311        3.45585        1.06022
H          1.85227        3.81549       -0.67365
H          0.55923        4.28223        0.47120
C         -0.23254        2.23268       -1.15117
H          0.34584        2.54387       -2.02179
H         -0.63571        1.23014       -1.30034
H         -1.05624        2.92300       -0.96186
H          1.44324        1.53845       -0.18647
