24
2sa1dma_40.log	Energy: -963491.9273132
S          0.80353       -1.89698       -0.03061
O         -0.53228       -2.26329        0.41263
O          1.84018       -2.87943       -0.14035
O          0.72233       -1.14570       -1.41334
O          1.22070       -0.73568        0.98746
H         -0.02928       -0.49776       -1.39901
H          2.10306       -0.39058        0.76669
S         -2.31270        0.70050       -0.06527
O         -1.32512        0.54943       -1.12035
O         -3.53457        1.41669       -0.28706
O         -2.68731       -0.70650        0.52186
O         -1.48927        1.39245        1.12610
H         -1.89969       -1.31702        0.52554
H         -2.10462        1.70761        1.80508
N          3.02428        2.61982       -0.10196
C          1.67588        2.29945       -0.53919
C          3.67513        1.52953        0.59068
H          3.58678        2.91722       -0.89029
H          1.04309        2.09883        0.33139
H          1.24497        3.15101       -1.07035
H          1.62807        1.41840       -1.20361
H          3.17622        1.35926        1.55335
H          3.68986        0.57804        0.01434
H          4.71505        1.78245        0.81016
