34
2sa1ma1tma_33.log	Energy: -1048340.6650372
S         -1.56896       -1.73183        0.08394
O         -0.37782       -2.14944        0.86033
O         -2.73602       -1.33091        0.86184
O         -1.21260       -0.76485       -0.98189
O         -2.05400       -3.08657       -0.67186
H         -1.26709       -3.54209       -0.99916
S          1.67796        0.80325        0.60469
O          2.84143        1.46227        1.16527
O          0.35978        1.38427        0.80361
O          1.87236        0.63590       -0.94105
O          1.70626       -0.66402        1.17047
H          2.88841        0.42864       -1.12645
H          0.85292       -1.18453        1.00542
N          4.40034        0.13581       -1.15569
H          4.86216        0.29476       -2.04559
C          4.65384       -1.22708       -0.65984
H          5.71864       -1.43490       -0.51125
H          4.12816       -1.35631        0.28807
H          4.24652       -1.94664       -1.37300
H          4.75655        0.82294       -0.49485
N         -2.35355        1.61641       -0.35670
C         -1.70026        2.76417       -1.03042
H         -0.76344        2.97158       -0.51565
H         -1.49511        2.49016       -2.06573
H         -2.37000        3.62649       -0.99408
C         -3.59790        1.19438       -1.04820
H         -3.35704        0.94730       -2.08192
H         -3.98028        0.30685       -0.54357
H         -4.32246        2.01081       -1.00839
C         -2.60315        1.87950        1.08571
H         -2.98568        0.96103        1.53095
H         -1.65936        2.14960        1.55509
H         -3.33061        2.69044        1.16992
H         -1.70432        0.79667       -0.43835
