33
2sa1ma1eda_77.log	Energy: -1058425.3776013
S          1.28471        1.39574        0.66850
O          1.81864        0.24773        1.42624
O          1.36602        1.26756       -0.78481
O         -0.06212        1.81247        1.14702
O          2.26603        2.64360        1.00096
H          2.30287        2.75733        1.96094
S         -2.40575       -0.99997        0.29200
O         -3.76279       -1.18532       -0.17020
O         -1.82309       -2.02186        1.17118
O         -1.42635       -0.66984       -0.82090
O         -2.47140        0.39050        1.13810
H         -1.52633        0.91691       -1.23680
H         -1.57320        0.65945        1.42060
N         -1.59594        1.97178       -1.19516
H         -2.57477        2.19459       -1.01990
C         -1.05202        2.63629       -2.39916
H         -1.15905        3.71649       -2.29992
H          0.00227        2.37239       -2.47109
H         -1.59356        2.28644       -3.27771
H         -1.05705        2.20389       -0.33981
H          2.09580       -3.63074       -0.03938
H          1.00705       -3.35574       -1.42750
H          3.24537       -2.67222       -2.04947
H          2.25949       -1.20992       -1.90001
H          4.57032       -1.32707       -0.76709
H          3.35600       -0.75435        0.16482
H          0.06549       -2.54723        0.71686
H          1.27776       -1.40330        0.79952
C          1.64099       -2.87313       -0.68005
C          2.72858       -2.02838       -1.33181
N          0.75616       -2.02778        0.16058
N          3.68928       -1.57533       -0.33426
H          0.14694       -1.40732       -0.41480
