18
2sa1a_12.log	Energy: -914192.1471358
S          1.55072       -0.72891       -0.08018
O          0.94050        0.28782       -0.96152
O          1.24433       -2.10903       -0.33340
O          3.07572       -0.50710       -0.05069
O          1.17534       -0.31674        1.41318
H          0.20854       -0.12283        1.46032
S         -2.34490        0.31288        0.09187
O         -3.63769        0.93612        0.11356
O         -1.44978        0.39398        1.23249
O         -2.50657       -1.26504       -0.14890
O         -1.60616        0.80087       -1.20406
H         -3.19446       -1.42631       -0.81147
H         -0.62958        0.56641       -1.16644
N          3.50769        2.02651       -0.01140
H          3.30317        0.52968       -0.01996
H          4.41069        2.32745       -0.36486
H          2.78382        2.41633       -0.61013
H          3.38521        2.41330        0.91988
