25
2sa1a1ma_38.log	Energy: -974362.8082129
S          1.25436        0.44071        0.67280
O          2.49496        0.42211        1.46822
O          0.10602        1.13532        1.27283
O          1.52758        0.96115       -0.71821
O          0.88733       -1.08920        0.49731
H          3.17868        0.30538       -1.11017
H         -0.00991       -1.16221        0.00717
S         -2.59815       -0.56843       -0.16314
O         -3.68615       -1.50972       -0.24327
O         -1.30001       -1.00934       -0.76243
O         -2.91708        0.80402       -0.67263
O         -2.29951       -0.39079        1.41342
H         -1.76021        1.64928       -0.99131
H         -1.52012        0.18945        1.53272
N          3.97571       -0.20913       -0.67415
H          4.86501        0.19253       -0.96149
C          3.87894       -1.66787       -0.94447
H          4.67371       -2.18484       -0.40810
H          2.90519       -2.00284       -0.58545
H          3.96804       -1.84312       -2.01585
H          3.78149       -0.00671        0.33527
N         -0.90256        2.31900       -1.15495
H         -0.03463        1.76144       -1.25757
H         -0.78207        2.87651       -0.31084
H         -1.05550        2.91843       -1.96036
