36
2sa1dma1eda_230.log	Energy: -1083064.7957053
S          0.43784       -1.95409        0.20889
O         -0.88855       -2.53072        0.52231
O          1.56361       -2.87204        0.28021
O          0.38721       -1.51371       -1.34556
O          0.67449       -0.68770        0.96603
H         -0.38570       -0.92247       -1.46603
H          2.29174       -0.52300        1.01761
S         -2.91460        0.14341       -0.26902
O         -4.21247        0.60107       -0.68707
O         -1.77738        0.19986       -1.17282
O         -2.43240        1.03959        0.98441
O         -3.06735       -1.27850        0.33645
H         -3.18440        1.17800        1.57812
H         -2.16379       -1.76863        0.43821
N          0.54106        2.31957        0.28898
C         -0.15733        3.04743       -0.76221
C          0.34072        2.91018        1.60441
H          0.21019        1.35722        0.31573
H          0.28709        4.04319       -0.87534
H         -0.05274        2.51555       -1.71092
H         -1.23197        3.17204       -0.55852
H          0.84034        3.88463        1.65487
H         -0.72305        3.06024        1.84781
H          0.77792        2.25989        2.36692
H          4.80301       -0.55545       -0.59241
H          3.28994       -1.44851       -0.93776
H          3.57892        0.81993       -2.20067
H          2.06567        0.59770       -1.32134
H          4.02467        2.56630       -0.79007
H          2.51071        2.32684       -0.10875
H          3.78839       -1.15209        1.47822
H          3.61297        0.51922        1.19240
C          3.71191       -0.52836       -0.53193
C          3.14554        0.72971       -1.20030
N          3.34393       -0.43682        0.90825
N          3.41015        1.89204       -0.35400
