26
2sa1eda_46.log	Energy: -998255.7962735
S         -1.24638        1.50384        0.06729
O         -2.64985        1.53078       -0.33133
O         -0.92988        0.75850        1.29579
O         -0.35047        1.08433       -1.05682
O         -0.82038        3.02205        0.43775
H         -1.22519        3.61748       -0.20814
S          2.68354       -0.32734       -0.12651
O          4.09259       -0.17882        0.10472
O          2.16050       -1.50879       -0.79160
O          1.87829       -0.35551        1.28013
O          2.16451        0.98570       -0.78400
H          1.95593        0.48992        1.74668
H          1.14174        1.01140       -0.90846
H         -1.54011       -3.56949       -0.01933
H         -1.37649       -2.86354        1.60930
H         -3.73441       -2.61612        0.63147
H         -2.97414       -1.07808        1.05331
H         -3.61220       -1.98924       -1.59661
H         -3.26717       -0.45947       -1.05145
H          0.39547       -2.13909       -0.11816
H         -0.89054       -1.37151       -0.86210
C         -1.58180       -2.64430        0.56026
C         -2.92587       -1.92736        0.36489
N         -0.53387       -1.73571        0.03910
N         -3.00286       -1.43932       -1.00667
H         -0.42676       -0.90699        0.65579
