26
2sa1eda_30.log	Energy: -998256.0524542
S         -1.29998        1.91566        0.10518
O         -2.25337        1.02602       -0.59526
O         -1.89107        2.88476        1.00670
O         -0.18455        1.09647        0.66643
O         -0.53519        2.76297       -1.05958
H         -0.94596        3.63666       -1.10490
S          2.66330       -0.42938       -0.10697
O          1.75470       -1.01473       -1.07933
O          4.08415       -0.48561       -0.31452
O          2.27708        1.03941        0.21507
O          2.28956       -1.21810        1.25689
H          1.26273        1.15035        0.36759
H          2.91809       -0.96615        1.94921
H         -0.55944       -2.82050        0.59513
H         -0.86872       -1.18381        1.22042
H         -2.82293       -2.71900        1.67925
H         -3.25931       -1.37018        0.62259
H         -2.87164       -4.14681       -0.21165
H         -4.07423       -3.10889       -0.60080
H         -0.01780       -1.24052       -1.06599
H         -1.46259       -2.02074       -1.51996
C         -1.20047       -1.93938        0.50756
C         -2.67257       -2.29216        0.67990
N         -1.01896       -1.37929       -0.85583
N         -3.08114       -3.17539       -0.41457
H         -1.50278       -0.44838       -0.90548
