30
2sa1a1eda_47.log	Energy: -1033766.9682119
S         -1.88450       -1.26874       -0.01153
O         -2.99365       -0.60032       -0.74191
O         -1.42625       -0.37304        1.09711
O         -2.09933       -2.65137        0.35277
O         -0.63645       -1.32545       -1.04454
H         -0.27832       -0.41379       -1.17712
S          0.75210        2.02328       -0.05223
O         -0.45893        2.86246       -0.13054
O          0.72923        0.96675       -1.13459
O          2.02726        2.70939        0.01175
O          0.66405        1.19052        1.31883
H         -0.13213        0.58852        1.28724
H          4.03997       -1.39727        0.68515
H          2.97028       -0.04753        1.17481
H          2.15361       -2.43942        1.82456
H          0.99342       -1.42026        0.98736
H          2.15342       -3.82839       -0.00400
H          0.85552       -2.96957       -0.55268
H          3.74005       -0.12416       -1.25403
H          2.69885       -1.46499       -1.35092
C          3.05203       -0.94607        0.56220
C          1.93599       -1.95605        0.86771
N          2.90894       -0.56850       -0.87217
N          1.82055       -2.90306       -0.24166
H          2.08148        0.08047       -1.01808
N         -2.97318        1.90163        0.16125
H         -3.05040        0.93930       -0.29091
H         -3.67445        2.54251       -0.19928
H         -3.09763        1.76809        1.16288
H         -2.00527        2.28456        0.00269
