36
2sa1dma1eda_216.log	Energy: -1083066.5659786
S         -0.38888       -1.78636        0.31955
O          0.67607       -2.76280        0.46219
O         -1.75576       -2.33047        0.11914
O         -0.39983       -0.71095        1.34401
O         -0.01697       -1.02529       -1.07636
H          0.53467        0.56890        0.93978
H         -0.79268       -0.48426       -1.33768
S         -3.27335        0.73457       -0.39723
O         -4.48979        1.41455       -0.75063
O         -2.17537        0.64796       -1.34919
O         -2.59957        1.50245        0.85811
O         -3.63598       -0.65969        0.17268
H         -3.26077        1.60281        1.55795
H         -2.84703       -1.34199        0.18090
N          1.29422        1.23755        0.65143
C          1.87006        1.84765        1.86248
C          0.76132        2.20542       -0.32675
H          2.00701        0.58208        0.19665
H          1.10010        2.41597        2.38706
H          2.23959        1.05368        2.51238
H          2.69013        2.51331        1.58531
H         -0.08426        2.73660        0.11221
H          1.54349        2.91459       -0.60734
H          0.41658        1.66077       -1.20457
H          4.95524        0.17486       -1.99013
H          6.19762        0.10252       -0.75589
H          4.77001       -1.83710       -0.54020
H          4.55376       -0.80949        0.88095
H          2.69920       -0.87055       -1.40119
H          2.43379       -1.54790        0.03464
H          3.83166        1.83992       -0.72113
H          4.94651        1.75407        0.48625
C          5.12406        0.25351       -0.90910
C          4.36990       -0.87214       -0.19842
N          4.79616        1.61499       -0.50743
N          2.92201       -0.76864       -0.41287
