26
2sa1eda_72.log	Energy: -998251.2325163
S          0.54691       -1.21528       -0.09082
O          1.74578       -1.98754       -0.37540
O         -0.72497       -1.96659       -0.09648
O          0.66729       -0.37245        1.13837
O          0.46562       -0.16224       -1.31481
H          2.06275        0.20167        1.34594
H         -0.39437        0.31107       -1.26464
S         -3.09636        0.55671       -0.07954
O         -2.01822        0.97323       -0.95865
O         -4.45976        0.92237       -0.35845
O         -3.04817       -0.98110        0.15905
O         -2.68140        1.17305        1.35129
H         -2.09766       -1.36091        0.09402
H         -3.42555        1.06900        1.96150
H          5.03767        0.18524        0.89964
H          3.84027       -1.08508        0.48208
H          4.57057        0.29961       -1.52341
H          2.83395        0.30621       -1.22606
H          4.66472        2.52765       -0.78446
H          3.11447        2.53311       -1.31243
H          3.32665        0.46509        2.45768
H          3.04607        1.60639        1.25551
C          4.02721       -0.01191        0.53058
C          3.79479        0.64423       -0.83106
N          3.06081        0.60034        1.48557
N          3.75494        2.09888       -0.65931
