31
2sa1a1tma_44.log	Energy: -1023660.0080902
S          1.96598        0.21779       -0.43690
O          2.96392        1.24814       -0.60257
O          0.91750        0.07046       -1.44032
O          2.64037       -1.18053       -0.28753
O          1.29855        0.48249        0.97454
H          3.56111       -1.07626        0.19940
H          0.47352       -0.05788        1.06517
S         -1.84877       -1.47535        0.12071
O         -3.20550       -1.11110        0.43981
O         -0.76210       -1.22346        1.04980
O         -1.80468       -3.06508       -0.10084
O         -1.49543       -0.93218       -1.30145
H         -2.65759       -3.35572       -0.45472
H         -0.57906       -0.52617       -1.33194
N          4.92691       -0.74060        0.86601
H          4.90257       -0.78120        1.88027
H          5.10058        0.22423        0.59300
H          5.70437       -1.30846        0.54433
N         -1.53848        1.93560        0.13882
C         -1.78455        2.08828        1.56289
H         -2.48488        1.31894        1.90054
H         -0.84617        1.97010        2.11330
H         -2.20837        3.08026        1.81322
C         -0.56622        2.90933       -0.33095
H          0.36465        2.81099        0.23298
H         -0.34540        2.73054       -1.38701
H         -0.93146        3.94879       -0.22017
C         -2.77629        2.04586       -0.61701
H         -2.57713        1.86786       -1.67775
H         -3.48990        1.29319       -0.27381
H         -3.23989        3.04612       -0.51259
