30
2sa1a1eda_195.log	Energy: -1033743.1135712
S          0.20778       -0.93788       -0.62153
O         -0.93338       -0.98051       -1.55813
O          1.51141       -1.22590       -1.22275
O          0.34939        0.61979       -0.17080
O         -0.03797       -1.69742        0.62601
H         -0.54500        0.96943        0.04568
H          1.55094       -2.21913        1.23678
S         -3.45609        0.65996        0.13703
O         -2.22373        1.40488        0.32888
O         -4.72205        1.33738        0.05533
O         -3.33599       -0.28882       -1.09323
O         -3.48670       -0.35122        1.38998
H         -2.37428       -0.60097       -1.24895
H         -4.34805       -0.79237        1.41632
H          3.04607        1.01555       -0.98052
H          4.25120       -0.19359       -0.56999
H          4.85618        1.01768        1.48288
H          3.78464        2.35411        1.05146
H          2.72506        0.83858        2.59602
H          1.92883        0.78639        1.16757
H          5.31432        1.24670       -2.04168
H          4.86977        2.59112       -1.23541
C          4.02217        0.87510       -0.49494
C          3.91944        1.26605        0.97529
N          5.11715        1.61363       -1.11765
N          2.81134        0.54479        1.62720
N          2.58900       -2.13177        1.17159
H          3.08518       -2.82041        1.72789
H          2.81026       -1.09616        1.44198
H          2.77794       -2.22920        0.16969
