36
2sa1dma1eda_121.log	Energy: -1083080.7856255
S         -1.53907       -1.83717       -0.46923
O         -0.72736       -1.83487        0.78025
O         -1.40993       -0.33958       -1.07674
O         -1.09296       -2.79111       -1.46721
O         -2.99007       -1.84368       -0.14459
H         -3.25252       -0.43399        0.53864
S          1.03348        2.00122       -0.35838
O          2.06168        2.98613       -0.65308
O          1.00278        1.46726        1.02029
O         -0.40142        2.80669       -0.44252
O          0.92612        0.90858       -1.35722
H         -0.28712        3.50959       -1.09589
H         -0.47976       -0.03466       -1.23370
N         -3.41983        0.50922        1.01909
C         -3.59275        1.56574       -0.00906
C         -2.30828        0.78316        1.96873
H         -4.28847        0.39436        1.54008
H         -2.64107        1.68317       -0.52508
H         -4.36068        1.24573       -0.71301
H         -3.87918        2.49935        0.47844
H         -1.38212        0.89427        1.40502
H         -2.52240        1.70301        2.51560
H         -2.21624       -0.06364        2.64783
H          2.68556       -2.56891       -0.38491
H          2.11164       -1.06029       -1.13900
H          4.61028       -1.08917       -1.02031
H          3.91940        0.21983       -0.06163
H          5.07185       -2.25227        0.99362
H          5.31887       -0.70979        1.47657
H          0.88931       -1.62647        0.90486
H          2.38483       -1.46660        1.75190
C          2.63520       -1.48178       -0.28124
C          4.02003       -0.86875       -0.12201
N          1.84043       -1.18118        0.93459
N          4.62106       -1.35285        1.12308
H          1.63966       -0.16004        1.01327
