31
2sa1a1tma_02.log	Energy: -1023694.0578898
S         -1.29070       -1.61982       -0.20089
O         -0.77156       -0.65275        0.82228
O         -2.71313       -1.48564       -0.47387
O         -0.58492       -1.17469       -1.57871
O         -0.80801       -2.98246        0.12221
H          0.62099       -2.78583        0.97514
S          2.19283        0.64004       -0.12073
O          1.20264        1.63537       -0.50831
O          2.41346        0.43322        1.31727
O          2.01770       -0.67670       -0.82181
O          3.57578        1.25478       -0.71465
H          0.37263       -0.99311       -1.41689
H          4.31380        0.73793       -0.36606
N          1.52015       -2.33929        1.29816
H          1.29293       -1.53355        1.88742
H          1.95658       -1.91328        0.45276
H          2.14377       -2.98313        1.77390
N         -1.82309        1.76105        0.28135
C         -3.17455        1.48291        0.83044
H         -3.54698        0.56357        0.37621
H         -3.09066        1.34542        1.90882
H         -3.83079        2.32708        0.60669
C         -1.18240        2.92597        0.93860
H         -1.12758        2.73539        2.01102
H         -0.17669        3.03637        0.53552
H         -1.78539        3.81684        0.74721
C         -1.85614        1.90312       -1.19920
H         -0.83154        2.01128       -1.55225
H         -2.29529        0.99854       -1.62074
H         -2.45666        2.77962       -1.45453
H         -1.24953        0.90007        0.49081
