36
2sa1dma1eda_203.log	Energy: -1083070.3407053
S          0.09365        1.87803       -0.28295
O          1.47274        2.38712       -0.27101
O         -0.45443        1.55461       -1.59526
O         -0.12587        0.77299        0.70558
O         -0.82359        3.04741        0.36353
H         -0.68674        3.86054       -0.14288
S          3.00703       -0.66382        0.20735
O          4.08198       -1.55023        0.53911
O          2.24255       -0.86666       -1.02208
O          1.98314       -0.69282        1.42516
O          3.56098        0.80877        0.21297
H          1.21286       -0.08584        1.25297
H          2.84435        1.45171       -0.04697
N         -3.24232        0.22257        0.51402
C         -4.14142        0.04985        1.64855
C         -3.75820        1.17264       -0.46815
H         -2.34383        0.55932        0.85145
H         -5.07824       -0.40418        1.30653
H         -3.68938       -0.62393        2.38206
H         -4.38985        0.99721        2.15266
H         -4.66175        0.76177       -0.93256
H         -4.01483        2.14767       -0.02531
H         -3.00889        1.33401       -1.24667
H         -0.32586       -3.49569       -1.14432
H          0.24483       -2.78376        0.38543
H         -2.06964       -3.97011        0.48236
H         -2.02113       -2.32525        1.12021
H         -3.66124       -3.17692       -0.92536
H         -3.32488       -1.60115       -0.48612
H          0.45078       -1.23714       -1.45023
H         -1.23268       -1.35929       -1.72119
C         -0.53477       -2.74665       -0.37781
C         -1.93996       -2.92135        0.20197
N         -0.47317       -1.41814       -1.03534
N         -2.92770       -2.49615       -0.78452
H         -0.60636       -0.65085       -0.35289
