33
2sa1ma1eda_60.log	Energy: -1058426.3715638
S         -1.25446        1.68907       -0.49334
O          0.09173        1.71340       -1.09497
O         -2.08651        0.57112       -0.98180
O         -1.25207        1.84105        0.97103
O         -1.99637        3.04071       -0.98632
H         -2.07545        3.01123       -1.95001
S          2.27798       -1.14720       -0.34446
O          3.60126       -1.47938        0.13235
O          1.66000       -2.03214       -1.34214
O          1.27845       -0.89388        0.77932
O          2.44033        0.31149       -1.01848
H          1.40289        0.53749        1.51111
H          1.55351        0.68434       -1.21703
N          1.29657        1.50376        1.93766
H          0.32235        1.78427        1.69232
C          2.29190        2.45862        1.39063
H          2.19610        3.41564        1.90358
H          3.29187        2.04730        1.52308
H          2.08851        2.58026        0.32863
H          1.37416        1.41393        2.94813
H         -2.39519       -3.44572       -0.54588
H         -1.14114       -3.65256        0.70774
H         -3.22847       -3.08700        1.78722
H         -2.13692       -1.71014        1.95795
H         -4.54901       -1.31395        1.17329
H         -3.41192       -0.59651        0.23654
H         -1.48544       -1.14238       -0.85675
H         -0.27443       -1.49203        0.22632
C         -1.80938       -2.93762        0.22226
C         -2.74137       -2.27988        1.23199
N         -0.95094       -1.92538       -0.44157
N         -3.76482       -1.49476        0.55909
H         -0.31484       -2.31496       -1.14897
