26
2sa1eda_21.log	Energy: -998259.6293209
S         -2.09449        0.70702       -0.09452
O         -1.79539        2.06036       -0.52358
O         -2.03403       -0.36081       -1.11000
O         -1.29154        0.32811        1.12286
O         -3.63131        0.74828        0.39211
H         -3.98941       -0.14976        0.36308
S          0.80463       -2.07150       -0.01052
O          1.63288       -3.23866        0.07229
O          1.41765       -0.74799       -0.10983
O         -0.17436       -2.26577       -1.23313
O         -0.15934       -2.05819        1.24574
H         -0.84963       -1.53343       -1.26537
H         -0.64816       -1.18768        1.27855
H          0.99592        1.35330       -1.03695
H          0.70033        3.07683       -0.76057
H          3.05883        2.49025       -1.63298
H          3.07199        3.42272       -0.13095
H          3.37933        0.49511       -0.23303
H          4.47974        1.60652        0.29927
H          0.12053        1.30208        1.05934
H          1.80398        1.35865        1.31127
C          1.29726        2.22039       -0.45087
C          2.80440        2.45307       -0.56590
N          0.98211        1.88880        0.97068
N          3.49233        1.41248        0.19180
H          0.86683        2.72465        1.54053
