26
2sa1eda_59.log	Energy: -998252.3485356
S          2.30155        0.12188        0.07877
O          1.93531        0.93660        1.22307
O          2.00023       -1.33240        0.19158
O          1.83106        0.66420       -1.22257
O          3.91748        0.17993        0.03399
H          4.23037       -0.50078       -0.57726
S         -1.42081       -1.79334       -0.09194
O         -1.40167       -0.34818       -0.22679
O         -2.51822       -2.55954       -0.62412
O         -0.10113       -2.42315       -0.60722
O         -1.34831       -2.01115        1.50514
H          0.75101       -1.92107       -0.28868
H         -1.43416       -2.95584        1.69903
H         -0.54195        1.59624        1.00202
H          0.13131        3.21055        0.78212
H         -2.27467        3.21111        1.62366
H         -2.06863        4.11625        0.12064
H         -3.06274        1.34712        0.20673
H         -3.89571        2.69205       -0.25549
H          0.51406        1.58519       -1.08124
H         -1.16807        1.61988       -1.31782
C         -0.64130        2.52303        0.43765
C         -2.04485        3.10920        0.55392
N         -0.36606        2.16788       -0.98300
N         -2.97512        2.27529       -0.19804
H         -0.28556        2.99649       -1.56986
