36
2sa1dma1eda_191.log	Energy: -1083070.6436355
S         -0.35906       -1.69080       -0.42404
O         -1.62639       -2.38310       -0.59152
O          0.84268       -2.56383       -0.38468
O         -0.14149       -0.53324       -1.32312
O         -0.47611       -1.04772        1.06996
H         -1.07214        0.81152       -0.92833
H          0.39695       -0.65583        1.28642
S          3.11776       -0.05000        0.31709
O          4.45357        0.24532        0.76290
O          1.98109        0.19322        1.19413
O          2.78958        0.87881       -0.96528
O          3.09422       -1.48839       -0.25200
H          3.52343        0.81808       -1.59347
H          2.13857       -1.91045       -0.33986
N         -3.70387       -0.29464        0.15666
C         -5.01038       -0.21611       -0.49130
C         -3.79461       -0.38348        1.61446
H         -3.20447       -1.12165       -0.18009
H         -5.50810        0.71679       -0.20575
H         -4.88178       -0.22054       -1.57663
H         -5.66919       -1.05189       -0.21523
H         -4.20660        0.54907        2.01619
H         -4.43852       -1.21109        1.94409
H         -2.79408       -0.53891        2.02400
H         -1.88840        2.80879        1.11501
H         -0.84936        1.38974        1.36492
H          0.53785        3.45238        1.08019
H          0.82186        2.29140       -0.21392
H         -0.67442        4.78996       -0.44227
H          0.42498        4.14270       -1.46325
H         -2.61176        0.93007       -0.27577
H         -1.91681        2.23098       -1.23010
C         -1.13014        2.16754        0.65500
C          0.07941        2.97682        0.20438
N         -1.73903        1.51268       -0.52432
N         -0.33855        3.91832       -0.83711
