30
2sa1a1eda_26.log	Energy: -1033767.9114967
S         -1.78072        1.72718        0.21698
O         -3.06598        1.00643        0.40448
O         -1.08755        1.17289       -1.00101
O         -1.83322        3.16965        0.28339
O         -0.82543        1.29578        1.44340
H         -0.67564        0.32469        1.42228
S          0.25754       -2.26960        0.15455
O          0.08107       -1.27275        1.21482
O         -0.99637       -2.73786       -0.47460
O          1.29091       -1.90669       -0.83859
O          0.83418       -3.55168        0.95931
H          0.87889       -4.29801        0.34613
H          1.82225        2.22710        0.71046
H          1.81435        0.53081        1.21678
H          4.14373        1.49899        1.28282
H          4.01371        0.15215        0.14729
H          4.10558        2.98641       -0.58980
H          5.02703        1.75495       -1.14658
H          0.56988        1.10683       -0.92080
H          2.13998        1.30010       -1.57771
C          2.18050        1.22565        0.46094
C          3.69810        1.18441        0.33076
N          1.58583        0.84396       -0.84497
N          4.10024        1.99763       -0.81828
H          1.61555       -0.18906       -0.96560
N         -2.85882       -0.96216       -1.35997
H         -3.67849       -1.37412       -1.79477
H         -2.19971       -1.69598       -1.00692
H         -2.34036       -0.37148       -2.01341
H         -3.10919       -0.29713       -0.57185
