27
2sa1tma_06.log	Energy: -988181.4498771
S         -1.93002       -1.29886       -0.13523
O         -2.93875       -0.32228        0.25736
O         -2.31814       -2.43365       -0.95059
O         -0.71717       -0.56400       -0.68923
O         -1.37056       -1.91126        1.26895
H         -1.26056       -2.86434        1.15177
S          2.53734       -0.36528        0.12865
O          3.78441       -0.96394        0.52450
O          1.81379        0.53771        0.99858
O          2.79817        0.53160       -1.20081
O          1.60503       -1.49453       -0.39963
H          3.41877        0.06201       -1.77646
H          0.64107       -1.15476       -0.53668
N         -0.91160        2.07442       -0.01430
C         -2.16022        2.53079       -0.67870
H         -2.02135        2.46934       -1.75859
H         -2.96967        1.86724       -0.37721
H         -2.35990        3.56341       -0.38430
C         -1.04747        2.06104        1.46743
H         -1.90276        1.43460        1.72147
H         -0.13641        1.63593        1.88793
H         -1.19642        3.08468        1.81820
C          0.26393        2.86580       -0.45786
H          1.15013        2.49174        0.05164
H          0.38293        2.74264       -1.53464
H          0.09087        3.91705       -0.21748
H         -0.76439        1.07285       -0.29864
