25
2sa1a1ma_56.log	Energy: -974355.3112004
S          3.08089        0.17538        0.18757
O          2.45011       -1.05913        0.61671
O          4.48679        0.23097       -0.11532
O          2.30211        0.78683       -1.01640
O          2.78171        1.20603        1.39131
H          1.29403        0.60550       -0.95410
H          3.40759        1.94116        1.32413
S         -0.91350       -0.81335       -0.32048
O         -2.05611       -1.20377       -1.15151
O         -0.19006        0.37667       -0.87864
O         -1.26796       -0.59532        1.09744
O          0.09809       -2.03846       -0.40357
H         -3.03852       -0.08491        1.09834
H          0.94186       -1.80257        0.04422
N         -3.82042        0.17494        0.46646
H         -3.49468        1.07179       -0.00711
C         -5.13534        0.27736        1.12173
H         -5.89142        0.53581        0.38034
H         -5.38960       -0.67468        1.58742
H         -5.09504        1.05475        1.88452
H         -3.75907       -0.54645       -0.26371
N         -2.56770        2.29614       -0.87061
H         -2.40694        3.18776       -0.41231
H         -2.89620        2.49518       -1.81087
H         -1.65872        1.83188       -0.96568
