33
2sa1ma1eda_148.log	Energy: -1058410.3509458
S          2.72302       -0.73519        0.13389
O          4.10041       -1.05981       -0.17423
O          1.83885       -1.77265        0.64878
O          2.67795        0.45164        1.14742
O          2.10720       -0.14236       -1.19300
H          3.51987        1.07385        0.97910
H          1.10411       -0.07204       -1.12836
S         -1.40897       -0.83830       -0.25479
O         -2.68371       -1.11586       -0.92076
O         -0.47571       -0.00335       -1.04018
O         -1.62160       -0.27033        1.11416
O         -0.72914       -2.26391       -0.06176
H         -3.11888       -0.07801        1.34202
H          0.20051       -2.14929        0.25250
N          4.77754        1.82530        0.57829
H          5.11987        2.49369        1.26138
C          4.57097        2.45944       -0.73394
H          5.48352        2.90918       -1.13859
H          4.20596        1.70350       -1.43171
H          3.80380        3.23060       -0.63975
H          5.46367        1.07764        0.50365
H         -5.40385        1.86656        1.30017
H         -3.68882        2.19106        1.68892
H         -4.37077        2.82951       -0.69439
H         -3.02076        1.69955       -0.61657
H         -5.49064        1.23131       -1.85666
H         -4.23857        0.16098       -1.65637
H         -4.56871       -0.10935        2.26550
H         -4.62605       -0.36025        0.60929
C         -4.36848        1.60762        1.06489
C         -4.09443        1.80429       -0.43086
N         -4.17221        0.16648        1.37093
N         -4.85694        0.81713       -1.18772
