34
2sa1ma1tma_36.log	Energy: -1048339.2762458
S          2.50565       -0.50535        0.75759
O          3.86238       -0.80695        1.16327
O          1.39231       -1.03012        1.53851
O          2.31407        1.04262        0.67123
O          2.37600       -1.00093       -0.73387
H          3.22207        1.47650        0.34013
H          1.41250       -1.03947       -1.03045
S         -1.30354       -0.90042       -0.69939
O         -2.55676       -1.43948       -1.21994
O         -0.09476       -1.19554       -1.48785
O         -1.41184        0.56273       -0.38849
O         -1.13186       -1.62730        0.72406
H         -2.85204        0.84481       -0.01137
H         -0.23428       -1.42859        1.08272
N          4.60662        1.88127       -0.14703
H          4.86061        2.84976        0.02031
C          4.75344        1.52799       -1.56852
H          5.77416        1.66737       -1.93945
H          4.46462        0.48353       -1.69959
H          4.07236        2.14277       -2.16026
H          5.21179        1.29817        0.42707
N         -3.88565        1.00580        0.26846
C         -4.24386       -0.09297        1.20032
H         -4.12241       -1.03997        0.67428
H         -3.55855       -0.06885        2.04801
H         -5.27475        0.04046        1.53784
C         -3.95743        2.33159        0.91875
H         -3.30256        2.33197        1.79074
H         -3.61673        3.08973        0.21296
H         -4.98687        2.53794        1.22206
C         -4.68032        0.94446       -0.98140
H         -4.34324        1.73771       -1.64964
H         -4.49456       -0.02270       -1.44935
H         -5.73999        1.07490       -0.74732
