36
2sa1dma1eda_246.log	Energy: -1083057.4428067
S         -3.16285       -0.25595        0.03691
O         -3.93049        0.85413       -0.46371
O         -2.32762       -0.14781        1.21684
O         -4.18647       -1.44511        0.40725
O         -2.34946       -0.84883       -1.16016
H         -4.92214       -1.42453       -0.22126
H         -1.57253       -1.42874       -0.84786
S          0.82649       -1.38763        0.09855
O          1.26878       -0.42591       -0.92289
O         -0.34360       -2.19724       -0.30051
O          1.96304       -2.18998        0.60989
O          0.36869       -0.53606        1.38394
H          3.29340       -1.39115        0.26238
H         -0.59621       -0.33522        1.33226
N          4.15304       -0.79584        0.04630
C          3.98619        0.52396        0.71300
C          4.31631       -0.70302       -1.42598
H          4.94963       -1.28577        0.45169
H          3.11471        1.03525        0.29607
H          3.82143        0.35329        1.77711
H          4.88631        1.12140        0.55876
H          3.40356       -0.26333       -1.82657
H          5.18653       -0.08641       -1.65702
H          4.44373       -1.70743       -1.83022
H          0.87957        3.26812       -1.54373
H         -0.70957        3.97707       -1.22313
H          0.88997        4.49460        0.56532
H         -0.51033        3.56614        1.14944
H          1.59916        2.72865        1.99547
H          0.88555        1.60664        1.06705
H         -1.39903        1.89004       -1.68237
H         -0.00864        1.15950       -1.20497
C         -0.00912        3.20082       -0.89669
C          0.40294        3.51245        0.53730
N         -0.66759        1.89978       -0.98307
N          1.35250        2.51154        1.03436
