34
2sa1ma1tma_37.log	Energy: -1048340.8673149
S          1.91169       -0.52030        0.31601
O          3.21835       -0.99767        0.83299
O          0.88078       -0.33489        1.34864
O          2.09467        0.70503       -0.52225
O          1.43982       -1.68525       -0.64657
H          3.76014        0.78177       -0.99473
H          0.46706       -1.56232       -0.87857
S         -2.21803       -1.44424       -0.22931
O         -1.04861       -1.15774       -1.10615
O         -2.62594       -2.82897       -0.15221
O         -1.74623       -0.95375        1.25110
O         -3.32272       -0.48137       -0.51506
H         -0.76302       -0.92862        1.31063
H         -2.77187        0.91660       -0.23321
N          4.72475        0.45240       -0.73750
H          4.43022       -0.33051       -0.08836
C          5.48075        1.49553       -0.01314
H          6.41796        1.07957        0.35574
H          5.67805        2.33807       -0.67566
H          4.86991        1.82143        0.82823
H          5.21480        0.08849       -1.55066
N         -2.44354        1.92227       -0.01900
C         -2.73470        2.16057        1.41376
H         -3.80660        2.04566        1.57817
H         -2.20153        1.40969        1.99620
H         -2.41409        3.16887        1.68812
C         -0.98775        2.00530       -0.30586
H         -0.44617        1.35848        0.38384
H         -0.80708        1.65379       -1.32104
H         -0.66011        3.04160       -0.18902
C         -3.23585        2.80149       -0.90456
H         -3.00476        2.55554       -1.94136
H         -4.29629        2.62422       -0.72153
H         -2.98916        3.84712       -0.70356
