36
2sa1dma1eda_103.log	Energy: -1083084.6168720
S         -1.24673        1.51187       -0.58256
O         -2.64405        1.90811       -0.74787
O         -0.82185        1.20718        0.79197
O         -0.81044        0.47471       -1.54904
O         -0.35422        2.84782       -0.93380
H         -0.73638        3.26009       -1.72037
S          1.86268       -1.69383       -0.38138
O          1.00004       -2.85383       -0.66121
O          3.29602       -1.91028       -0.31559
O          1.68271       -0.64304       -1.59482
O          1.31685       -0.95284        0.81866
H          0.76259       -0.28014       -1.60833
H          1.98927        0.39896        1.04131
N          2.55742        1.30175        1.20887
C          1.85987        2.14172        2.21041
C          2.78994        1.98022       -0.09118
H          3.45009        0.97576        1.57880
H          0.85777        2.34472        1.83078
H          1.78578        1.58475        3.14479
H          2.41594        3.06813        2.36613
H          1.82950        2.32943       -0.47175
H          3.46556        2.82484        0.05864
H          3.21511        1.25768       -0.78753
H         -2.81746       -3.07058        0.98964
H         -1.96068       -2.19624        2.28227
H         -4.30370       -1.28504        1.89345
H         -3.05044       -0.07503        1.59764
H         -4.77997       -1.25657       -0.37646
H         -3.88505        0.14061       -0.45084
H         -0.66350       -2.48045        0.07715
H         -1.81178       -1.42422       -0.54259
C         -2.40651       -2.10382        1.29017
C         -3.47958       -1.01061        1.22501
N         -1.34815       -1.74262        0.32264
N         -3.88762       -0.83320       -0.16209
H         -0.77224       -0.95446        0.66142
