27
2sa1tma_22.log	Energy: -988182.2821931
S          1.72817       -1.42344        0.01392
O          2.43733       -2.50624        0.63171
O          0.90897       -0.57279        1.10211
O          2.45583       -0.40301       -0.72663
O          0.58804       -2.04103       -0.87720
H         -0.08206       -1.34064       -1.13110
S         -2.25080       -0.42392       -0.02088
O         -3.37435       -1.23514       -0.43756
O         -1.20954       -0.13032       -1.04401
O         -2.85541        1.07915        0.25085
O         -1.61172       -0.82571        1.25873
H         -3.78462        0.97821        0.49756
H         -0.06930       -0.83838        1.23623
N          0.92285        2.07457        0.01358
C          2.29042        2.45619        0.45543
H          2.38105        2.25700        1.52338
H          3.00842        1.84581       -0.09006
H          2.44055        3.51862        0.25469
C          0.74911        2.24272       -1.45520
H          1.50875        1.64328       -1.95588
H         -0.24149        1.87785       -1.72449
H          0.86413        3.30097       -1.69788
C         -0.12840        2.79018        0.78346
H         -1.10831        2.44395        0.45505
H          0.00242        2.56514        1.84229
H         -0.01890        3.86254        0.61060
H          0.82143        1.06750        0.22977
