27
2sa1tma_32.log	Energy: -988153.3091648
S         -2.91095       -0.90457        0.11942
O         -4.10076       -1.62349        0.47031
O         -1.76292       -0.86510        1.00899
O         -2.30944       -1.48720       -1.24865
O         -3.33747        0.55738       -0.26573
H         -3.03540       -1.72937       -1.84312
H         -2.54262        1.15131       -0.34370
S          0.23815        1.74695       -0.03032
O         -1.14230        2.05684       -0.36479
O          1.20547        2.78770        0.15966
O          0.28162        0.83115        1.25149
O          0.69855        0.76118       -1.20048
H         -0.45748        0.16838        1.22420
H          1.64802        0.56385       -1.10964
N          3.96357       -1.15965        0.41323
C          4.95963       -1.75558       -0.45673
H          5.92929       -1.27662       -0.29416
H          5.06327       -2.82017       -0.22985
H          4.70009       -1.65421       -1.52950
C          2.67955       -1.81931        0.28745
H          2.78253       -2.88408        0.51245
H          1.96663       -1.38803        0.99555
H          2.25371       -1.73352       -0.73501
C          3.85255        0.26332        0.19494
H          3.12826        0.70094        0.88762
H          4.81501        0.75425        0.36107
H          3.55625        0.50860       -0.85443
