30
2sa1a1eda_114.log	Energy: -1033760.9221519
S         -2.80358        0.36738       -0.12267
O         -1.82863        0.73593        0.96350
O         -3.16726       -1.06066       -0.02083
O         -3.86704        1.32786       -0.30747
O         -1.91293        0.48645       -1.49448
H         -1.33862       -0.29697       -1.54870
S          1.66111       -1.50756       -0.23629
O          2.79887       -0.58251       -0.24105
O          1.36564       -2.16254        1.04528
O          0.44840       -0.89476       -0.84732
O          2.06139       -2.75213       -1.19042
H          2.43617       -2.40408       -2.01086
H          2.06205        1.57991       -1.35767
H          1.17922        3.11915       -1.49337
H          3.50664        3.23721       -0.36960
H          2.19320        3.94416        0.58332
H          3.21590        1.21306        1.00454
H          3.28715        2.49079        2.06011
H          0.26526        0.80919       -0.36925
H          0.84364        1.64388        0.94429
C          1.58543        2.38548       -0.79701
C          2.58823        3.00351        0.18412
N          0.48257        1.76146       -0.01889
N          2.76542        2.07858        1.29760
H         -0.40224        2.26749        0.01836
N         -1.26116       -1.77119        1.80561
H         -0.29460       -2.05136        1.53284
H         -1.51513       -2.14311        2.71552
H         -1.33913       -0.72697        1.77444
H         -1.95714       -2.03643        1.08886
