36
2sa1dma1eda_199.log	Energy: -1083070.0158939
S          3.15990       -0.10279       -0.10600
O          4.56467        0.20601       -0.13118
O          2.33373        0.30469        1.01934
O          2.44532        0.61586       -1.36038
O          2.99268       -1.61935       -0.40290
H          2.94476        0.42204       -2.16653
H          2.06705       -1.99458       -0.13619
S         -0.41577       -1.65027        0.29350
O          0.75507       -2.55877        0.32234
O         -1.69587       -2.29537        0.62436
O         -0.21204       -0.62435        1.52889
O         -0.46837       -0.83101       -0.92848
H          0.69173       -0.24525        1.46540
H         -2.93290        0.50333       -0.29088
N         -3.51394       -0.40898       -0.27164
C         -3.71608       -0.82918       -1.67366
C         -4.75479       -0.20895        0.49600
H         -2.91340       -1.13018        0.18585
H         -4.27756       -0.05767       -2.20441
H         -2.73163       -0.95997       -2.12476
H         -4.26199       -1.77380       -1.69987
H         -5.34749        0.57913        0.02757
H         -5.32917       -1.13688        0.51998
H         -4.49676        0.08386        1.51424
H         -2.16169        3.05967        1.13783
H         -1.29288        1.57898        1.57247
H          0.26451        3.47175        1.65860
H          0.71210        2.37417        0.35270
H         -0.55418        4.98869        0.03914
H          0.74968        4.37617       -0.72997
H         -1.87086        2.46880       -1.15054
H         -1.07949        1.09733       -0.75946
C         -1.38132        2.36052        0.81270
C         -0.04815        3.09370        0.67396
N         -1.81538        1.73691       -0.44486
N         -0.15720        4.13853       -0.34654
