26
2sa1eda_64.log	Energy: -998254.3528009
S         -2.43287        0.75494       -0.15676
O         -1.20999        0.87482       -1.01341
O         -3.60315        1.45708       -0.62868
O         -2.64846       -0.63205        0.28993
O         -1.88699        1.57435        1.16963
H         -1.58560       -1.85018        0.35661
H         -2.63557        1.73121        1.76099
S          0.53589       -1.90963        0.08633
O          1.51084       -2.95000       -0.05253
O         -0.87505       -2.55803        0.28305
O          0.72930       -0.88599        1.12126
O          0.43242       -1.16113       -1.31007
H          0.84000        0.81901        0.89712
H         -0.26181       -0.43930       -1.28099
H          3.20371        0.42590        0.98122
H          3.55538        2.14763        1.20741
H          2.31679        2.70183       -0.87474
H          2.03850        0.97646       -1.18426
H          0.92313        2.48770        1.10091
H          0.09771        1.78913       -0.18049
H          5.43146        1.37995        0.12777
H          4.60358        0.48060       -0.95739
C          3.40397        1.36893        0.45055
C          2.19174        1.72581       -0.40368
N          4.57538        1.33522       -0.41115
N          0.94730        1.73686        0.41374
