25
2sa1a1ma_27.log	Energy: -974365.1042073
S          1.86982       -0.72612       -0.25344
O          1.06697       -1.61902       -1.11114
O          2.31235        0.52853       -0.86541
O          1.22525       -0.50877        1.07122
O          3.24856       -1.51482        0.02150
H          3.04450       -2.44624        0.18445
S         -2.03544       -0.81344        0.19070
O         -1.56485        0.55134       -0.07705
O         -3.43268       -1.04325        0.40994
O         -1.57403       -1.73697       -0.99797
O         -1.23604       -1.35476        1.43862
H         -0.58328       -1.68321       -1.12447
H         -0.27170       -1.08683        1.37144
N          0.55106        2.32890        0.32017
H         -0.08167        1.56693        0.59978
H          1.29682        1.85286       -0.22218
C          1.10451        3.04793        1.48336
H          1.78954        3.82103        1.13611
H          0.29107        3.50307        2.04835
H          1.64060        2.33706        2.11171
H         -0.03394        2.91858       -0.32273
N         -1.43844        3.29132       -1.43950
H         -2.08461        4.05017       -1.24815
H         -1.93653        2.41405       -1.28745
H         -1.20047        3.33808       -2.42547
