39
2sa1eda1tma_23.log	Energy: -1107750.3006336
S         -0.77082        2.18752       -0.27981
O         -0.84268        2.05760        1.17579
O          0.59875        2.39527       -0.79947
O         -1.54354        1.17064       -1.02387
O         -1.57946        3.54926       -0.67303
H         -1.11086        4.29612       -0.27729
S          0.32988       -1.82089       -0.78039
O          0.07309       -0.91465        0.38082
O          1.77448       -1.88299       -1.08943
O         -0.34434       -3.11089       -0.67280
O         -0.35042       -1.05717       -2.03104
H         -0.71263       -0.18820       -1.73049
H          2.91328        1.49640        1.47771
H          1.87023        0.05432        1.43487
H          4.11833       -0.50320        2.42528
H          3.82835       -1.37221        0.91303
H          5.60318        0.93081        1.24911
H          5.89517       -0.49541        0.50277
H          1.89152        1.31357       -0.64047
H          3.54720        0.91502       -0.80200
C          2.79469        0.49356        1.05814
C          4.00852       -0.38064        1.34002
N          2.64596        0.62978       -0.41133
N          5.18258        0.20069        0.68443
H          2.38273       -0.30297       -0.81105
N         -2.58880       -0.91779        0.91235
C         -3.31547        0.21771        1.52957
H         -2.72019        0.61236        2.35142
H         -3.43545        0.99716        0.77914
H         -4.28641       -0.13917        1.88169
C         -3.25296       -1.38320       -0.33476
H         -3.28802       -0.54717       -1.03211
H         -2.66299       -2.19720       -0.75836
H         -4.26051       -1.72501       -0.08652
C         -2.38145       -2.03896        1.86392
H         -1.77112       -2.79596        1.36914
H         -1.85661       -1.65726        2.73968
H         -3.35316       -2.44669        2.15142
H         -1.62220       -0.60749        0.65086
