26
2sa1eda_92.log	Energy: -998250.0388992
S         -0.23180       -1.65784        0.11977
O         -0.44361       -0.13948        0.03834
O          0.54988       -2.01457        1.28451
O         -1.52113       -2.32581       -0.08721
O          0.59546       -2.00237       -1.20843
H          1.42535       -1.47831       -1.20595
S          2.83660        0.95402       -0.13239
O          3.66497        2.09277       -0.43339
O          2.63146       -0.10202       -1.10542
O          3.44651        0.19518        1.14582
O          1.46025        1.48811        0.38178
H          3.77247        0.85079        1.77863
H          0.71459        0.78718        0.28840
H         -4.69609       -0.32910        0.49517
H         -3.15289       -0.29113        1.37707
H         -4.41272        1.88740        1.61699
H         -2.85698        2.10201        0.81399
H         -5.47386        2.15644       -0.48685
H         -4.20516        3.17021       -0.67403
H         -2.92668       -1.13369       -0.89106
H         -3.41272        0.41613       -1.45852
C         -3.71758        0.15410        0.55679
C         -3.85427        1.66561        0.69933
N         -2.98493       -0.12507       -0.70193
N         -4.46112        2.20276       -0.51904
H         -1.96884        0.12668       -0.56980
