31
2sa1a1tma_19.log	Energy: -1023687.8318601
S          0.65872       -1.04020       -0.40535
O          1.77583       -1.72328       -1.04537
O         -0.55402       -1.83103       -0.12453
O          1.11133       -0.34528        0.87169
O          0.26624        0.13146       -1.39560
H          2.50773        0.30825        0.49010
H         -0.54376        0.62384       -1.02067
S         -3.06649        0.63522       -0.13952
O         -4.14686        1.41716       -0.68608
O         -1.70133        1.23788       -0.23145
O         -3.28858        0.16162        1.26533
O         -3.00085       -0.69981       -1.04556
H         -2.09144       -0.33819        1.94954
H         -2.21680       -1.22983       -0.79174
N         -1.20286       -0.79255        2.41441
H         -0.34548       -0.37008        2.01612
H         -1.17781       -1.77098        2.12767
H         -1.22853       -0.70946        3.42591
N          3.45029        0.70944        0.18856
C          4.42169       -0.41214        0.24204
H          4.48717       -0.77245        1.26919
H          4.04593       -1.20998       -0.39921
H          5.39854       -0.05881       -0.09625
C          3.28774        1.22300       -1.19824
H          3.00895        0.39024       -1.84329
H          2.48516        1.95993       -1.20767
H          4.22917        1.67252       -1.52254
C          3.78349        1.79218        1.14155
H          3.00310        2.55233        1.09780
H          3.83140        1.37511        2.14795
H          4.74746        2.23102        0.87470
