24
2sa1dma_28.log	Energy: -963516.6592686
S         -2.58027        0.48895       -0.11945
O         -3.94035        0.89649       -0.34595
O         -1.57512        0.65040       -1.15832
O         -1.98084        1.34058        1.11154
O         -2.59505       -0.97135        0.41572
H         -2.63403        1.36271        1.82585
H         -1.67979       -1.43493        0.35399
S          0.90647       -1.40693        0.09387
O          2.12348       -2.18757       -0.01130
O         -0.36342       -2.15892        0.16552
O          0.95520       -0.32087        1.11494
O          0.85804       -0.59340       -1.33435
H          2.00094        0.75906        0.55227
H         -0.02967       -0.17781       -1.41141
N          2.67231        1.25193       -0.11309
C          4.02557        0.67937        0.08764
C          2.57330        2.71972        0.01961
H          2.30556        0.94196       -1.02083
H          4.36642        0.93541        1.09131
H          3.94652       -0.40483       -0.00980
H          4.71122        1.08628       -0.65709
H          2.88069        3.00222        1.02696
H          3.22136        3.20148       -0.71411
H          1.53657        3.01530       -0.14231
