34
2sa1ma1tma_21.log	Energy: -1048349.0979927
S          2.84282       -0.11099        0.00168
O          1.83515       -0.41026       -1.04356
O          3.08477        1.31378        0.22806
O          2.60059       -0.89289        1.23366
O          4.20958       -0.71022       -0.65974
H          4.95564       -0.37113       -0.14741
S         -2.63251       -0.57033       -0.11990
O         -2.68172        0.80816       -0.66946
O         -2.38145       -1.60550       -1.12087
O         -1.77131       -0.65755        1.07752
O         -4.11396       -0.84437        0.49067
H         -4.73258       -0.92399       -0.24812
N          0.35658       -2.27729        0.33332
H          0.69082       -1.73337       -0.48383
H          1.14620       -2.18165        0.98870
C         -0.00410       -3.66805       -0.00605
H         -0.30067       -4.19331        0.90164
H         -0.83881       -3.63910       -0.70581
H          0.85590       -4.16239       -0.45740
H         -0.45388       -1.75230        0.72078
N         -0.62985        2.41256        0.01640
C          0.26114        2.40414       -1.17621
H          0.65098        1.39611       -1.32331
H         -0.32369        2.71759       -2.04171
H          1.09602        3.08438       -1.00013
C         -1.24406        3.74227        0.23362
H         -1.77013        4.04046       -0.67363
H         -1.95352        3.67478        1.05880
H         -0.46109        4.46610        0.46889
C          0.06530        1.92085        1.23642
H         -0.62890        1.97128        2.07483
H          0.35397        0.88495        1.07891
H          0.95771        2.52296        1.41074
H         -1.41890        1.74844       -0.19521
