30
2sa1a1eda_144.log	Energy: -1033754.6370672
S          0.95001        1.72693       -0.14189
O         -0.19101        1.78226        0.81697
O          2.22186        1.51923        0.55947
O          0.69745        0.83290       -1.27714
O          1.02471        3.18618       -0.83789
H          1.29555        3.83029       -0.16897
S         -2.75592       -0.45995        0.03233
O         -4.16677       -0.68293       -0.13034
O         -1.97052       -1.25975        0.95346
O         -1.99954       -0.72601       -1.37777
O         -2.54001        1.06350        0.26013
H         -2.34199       -0.13325       -2.06200
H         -1.56415        1.32667        0.46652
H          1.88721       -3.43006        0.04664
H          1.25507       -3.08995       -1.58653
H          3.65397       -2.58016       -1.43858
H          2.72188       -1.11833       -1.77779
H          4.53255       -1.23915        0.13607
H          3.19484       -0.32708        0.33797
H         -0.26315       -2.18263        0.02048
H          0.92127       -1.40017        0.89619
C          1.67513       -2.64351       -0.68109
C          2.94740       -1.86649       -1.00397
N          0.65406       -1.74686       -0.08874
N          3.52332       -1.28204        0.20250
H          0.51706       -0.90169       -0.67109
N          1.13449       -0.70493        2.42325
H          0.24502       -0.49816        2.86745
H          1.60082        0.18139        2.23549
H          1.71096       -1.23548        3.06732
