30
2sa1a1eda_38.log	Energy: -1033766.5963812
S          2.59883        0.10808       -0.17479
O          1.58951        0.44688        0.90924
O          2.28967        0.89049       -1.38188
O          3.96658        0.09146        0.28908
O          2.26645       -1.44531       -0.50860
H          1.33821       -1.53174       -0.81216
S         -1.68437       -1.31402       -0.36730
O         -1.89079       -0.16313       -1.26420
O         -0.42192       -2.03496       -0.61740
O         -1.89864       -1.00819        1.06186
O         -2.87903       -2.35636       -0.68650
H         -2.82439       -2.60932       -1.61876
H         -0.33684        3.89026        0.02402
H         -1.22235        3.55813       -1.48693
H         -2.73233        3.72622        0.54747
H         -2.86199        2.18566       -0.30375
H         -2.17092        2.51754        2.36710
H         -2.07688        1.11271        1.50688
H          0.18182        1.57658        0.22769
H         -0.71635        1.17462       -1.09848
C         -0.95635        3.16222       -0.50406
C         -2.19812        2.79991        0.31539
N         -0.14749        1.93797       -0.68620
N         -1.80325        2.09122        1.52820
H          0.71742        2.02449       -1.23749
N          0.58926       -1.61284        2.13902
H          0.80257       -1.75741        3.12114
H          1.08035       -0.73862        1.73989
H          0.90056       -2.40674        1.57923
H         -0.42780       -1.48158        1.96971
