36
2sa1dma1eda_204.log	Energy: -1083070.5130633
S         -1.69334       -1.00527        0.14955
O         -2.92833       -1.37944        0.89678
O         -0.47010       -1.61864        0.67891
O         -1.88996       -1.16723       -1.30414
O         -1.59968        0.57683        0.43151
H         -3.88243       -1.13851       -1.71777
H         -0.69950        0.92553        0.17887
S          2.07792        0.74207        0.07134
O          0.81421        1.45852       -0.15038
O          3.16028        1.56276        0.65739
O          1.81669       -0.36025        1.20967
O          2.55164       -0.00138       -1.12647
H          0.98857       -0.87240        1.00890
H          4.24105       -0.25148       -0.89488
N          5.07524       -0.05824       -0.28486
C          6.27614        0.28128       -1.06745
C          5.23088       -1.17226        0.67671
H          4.68577        0.76864        0.22260
H          6.58917       -0.58884       -1.64664
H          6.03387        1.10334       -1.74093
H          7.07791        0.58142       -0.39097
H          5.50899       -2.07848        0.13672
H          6.00262       -0.91660        1.40412
H          4.27377       -1.31645        1.18061
H         -6.35704        0.95243        0.12857
H         -5.48121        2.42717       -0.22908
H         -5.17546        0.95253       -2.12102
H         -3.61968        1.07257       -1.26409
H         -4.11004       -1.03215       -0.12697
H         -5.47658       -1.21434       -1.16060
H         -4.62936        0.32141        1.64894
H         -3.69332        1.56860        1.21343
C         -5.34687        1.36835        0.01817
C         -4.65277        0.72556       -1.18759
N         -4.66144        1.26894        1.28927
N         -4.57276       -0.75928       -1.05428
