25
2sa1a1ma_29.log	Energy: -974364.8940293
S         -2.43347       -0.86122       -0.04641
O         -2.67061        0.47684       -0.60761
O         -3.54589       -1.76299        0.03841
O         -1.29890       -1.55580       -0.88418
O         -1.80704       -0.69192        1.38620
H         -0.40226       -1.09245       -0.75888
H         -1.05712       -0.00247        1.37367
S          1.18430        0.85015        0.23939
O          0.03685        1.07594        1.18438
O          0.99700       -0.52178       -0.41214
O          1.15381        1.91250       -0.81007
O          2.49460        0.83127        0.95402
H         -0.28164        2.55774       -0.77517
H          3.23668       -0.57058        0.76077
N          3.36176       -1.51580        0.27874
H          3.54718       -2.25636        0.94997
C          4.37026       -1.43344       -0.79930
H          4.39358       -2.36758       -1.36034
H          4.08432       -0.61342       -1.45754
H          5.34893       -1.23039       -0.36558
H          2.39727       -1.59679       -0.10762
N         -1.29662        2.82895       -0.55735
H         -1.66670        3.51705       -1.20612
H         -1.31238        3.18148        0.39731
H         -1.85705        1.94687       -0.58403
