33
2sa1ma1eda_39.log	Energy: -1058426.0706479
S         -2.14831       -1.08707       -0.49918
O         -2.12558        0.11405       -1.35898
O         -1.32378       -2.19443       -1.01454
O         -1.90306       -0.79302        0.92466
O         -3.68434       -1.61044       -0.50635
H         -3.91817       -1.85401       -1.41244
S          2.81387        0.47342       -0.23774
O          2.39320        1.52152       -1.18713
O          4.21095        0.49604        0.14834
O          1.83251        0.30646        0.87113
O          2.56287       -0.96344       -1.02087
H          3.16252       -1.01111       -1.77696
N          0.60184       -2.09538        1.00752
H         -0.23351       -1.96819        1.58695
H          0.22013       -2.29815        0.06845
C          1.53556       -3.13155        1.49079
H          2.39057       -3.15706        0.81599
H          1.87320       -2.86971        2.49311
H          1.03656       -4.10043        1.50448
H          1.08013       -1.16191        0.95450
H         -0.31429        3.86756        0.36154
H         -1.22225        3.59909       -1.15008
H         -2.70974        3.81887        0.90587
H         -2.92438        2.29819        0.03385
H         -2.22338        2.53789        2.69978
H         -2.11505        1.15561        1.79902
H          0.68508        2.00310       -0.85591
H         -0.01170        1.50905        0.54462
C         -0.97429        3.18064       -0.17227
C         -2.22510        2.87108        0.65399
N         -0.23071        1.91664       -0.37489
N         -1.84535        2.13407        1.85462
H         -0.82429        1.22750       -0.87800
