37
2sa1dma1tma_25.log	Energy: -1073014.0027452
S          0.47760       -1.99735       -0.45114
O          1.56952       -2.92786       -0.67537
O          0.37194       -1.46050        0.92593
O          0.90078       -0.68648       -1.35282
O         -0.85057       -2.40797       -0.97248
H         -1.95264       -1.53131       -0.14980
S         -0.92328        2.15405       -0.35795
O         -1.68386        3.35052       -0.67838
O          0.51155        2.33020       -0.11490
O         -1.54866        1.66130        1.12385
O         -1.21543        0.95710       -1.18056
H         -1.97618        2.43317        1.51604
H          0.11373       -0.08461       -1.41770
N         -2.61577       -0.99668        0.47566
C         -2.83970       -1.79443        1.69782
C         -3.83300       -0.64929       -0.28572
H         -2.12323       -0.12731        0.72078
H         -3.32159       -2.73438        1.42569
H         -1.86596       -1.99324        2.14589
H         -3.47488       -1.23523        2.38735
H         -4.31088       -1.56705       -0.63088
H         -4.51644       -0.08932        0.35515
H         -3.52956       -0.03642       -1.13441
N          2.80775        0.49309        0.38525
C          3.66522       -0.72142        0.34082
H          3.13754       -1.54462        0.82039
H          3.84598       -0.98446       -0.70090
H          4.60424       -0.50319        0.85377
C          3.45294        1.64371       -0.29719
H          3.67014        1.35819       -1.32692
H          2.75822        2.48182       -0.28807
H          4.37821        1.88926        0.22825
C          2.39898        0.82251        1.77649
H          1.73623        1.68552        1.73719
H          1.85979       -0.03676        2.17392
H          3.29790        1.03541        2.35973
H          1.94768        0.26550       -0.15203
