34
2sa1ma1tma_34.log	Energy: -1048339.6978318
S         -1.26925        0.91931        0.09402
O         -0.00935        1.48622       -0.42335
O         -2.30342        1.88322        0.45891
O         -1.79415       -0.15309       -0.81325
O         -0.92224        0.17949        1.47636
H         -0.13135       -0.39750        1.34296
S          2.42326       -0.87050        0.15244
O          3.38588       -1.83337       -0.33259
O          1.24181       -1.34667        0.86324
O          3.10867        0.18311        1.08044
O          1.98173       -0.02451       -1.10937
H          3.91309        0.62866        0.56031
H          1.19328        0.56460       -0.88419
N          5.02654        1.17969       -0.33289
H          4.57831        1.33622       -1.23259
C          6.11000        0.18993       -0.46154
H          6.87688        0.49105       -1.18275
H          6.57603        0.04831        0.51553
H          5.67173       -0.76156       -0.76742
H          5.38249        2.07672       -0.01674
N         -4.31442       -0.46175       -0.27011
C         -5.00676        0.71396       -0.85008
H         -4.54969        1.61134       -0.43212
H         -4.86243        0.70572       -1.93105
H         -6.07228        0.66359       -0.61174
C         -4.76705       -1.73584       -0.86838
H         -4.60461       -1.69685       -1.94596
H         -4.18006       -2.55185       -0.44578
H         -5.82808       -1.88792       -0.65521
C         -4.40465       -0.47560        1.21147
H         -3.79473       -1.29604        1.59050
H         -4.00431        0.46675        1.58623
H         -5.44813       -0.60630        1.50886
H         -3.26574       -0.35144       -0.51307
