30
2sa1a1eda_88.log	Energy: -1033764.4444818
S          2.75934        0.19544       -0.19448
O          2.94956       -1.24304       -0.47726
O          2.05264        0.36707        1.12782
O          3.88843        1.07486       -0.37874
O          1.65903        0.70791       -1.29006
H          0.96857        0.02471       -1.37521
S         -1.87525       -1.38147       -0.16493
O         -1.43303       -2.32154        0.87477
O         -3.03134       -0.54619        0.15655
O         -0.73602       -0.57266       -0.69148
O         -2.31773       -2.36155       -1.37420
H         -2.86168       -1.85804       -1.99487
H         -0.37546        3.78648        0.49570
H          0.04642        2.82794       -0.94900
H         -2.39893        3.71521       -0.89295
H         -2.22098        1.97940       -1.15314
H         -3.54953        3.19855        0.99655
H         -3.30859        1.58498        0.73197
H          0.71164        1.60701        1.06795
H         -0.91084        1.75592        1.60128
C         -0.59735        2.87819       -0.06924
C         -2.08670        2.78053       -0.41826
N         -0.28132        1.71616        0.79311
N         -2.85582        2.49263        0.79243
H         -0.49473        0.83886        0.27186
N          1.27298       -2.26190        1.38839
H          0.25908       -2.38313        1.16641
H          1.86180       -2.29338        0.53207
H          1.44417       -1.28774        1.70316
H          1.58494       -2.93969        2.07714
