39
2sa1eda1tma_83.log	Energy: -1107744.9543659
S         -2.68158       -1.31080       -0.45767
O         -3.73099       -1.84754       -1.29229
O         -1.47241       -0.81192       -1.19966
O         -3.10688       -0.26241        0.51363
O         -2.15503       -2.54978        0.42427
H         -1.89015        0.77297        0.83634
H         -1.42291       -2.23632        0.99689
S          1.20960       -1.03540        0.74553
O          2.49218       -1.62191        1.12340
O          0.05385       -1.29133        1.61196
O          1.36825        0.46863        0.53345
O          0.89858       -1.61913       -0.69576
H          2.82344        0.63053       -0.03867
H         -0.05040       -1.36539       -0.96358
H         -0.70352        3.05343       -0.63479
H         -1.45112        1.56586       -1.29133
H         -3.08595        3.48405       -1.30675
H         -3.60330        2.15696       -0.25824
H         -2.57789        4.74817        0.61679
H         -3.82620        3.87077        1.20613
H         -0.24260        1.21771        0.80814
H         -1.39876        2.22405        1.55546
C         -1.48722        2.30340       -0.48747
C         -2.86155        2.95253       -0.37360
N         -1.21101        1.58480        0.77868
N         -2.89347        3.80587        0.81757
N          3.80936        0.69892       -0.45261
C          3.93345       -0.39119       -1.45662
H          3.80185       -1.34391       -0.94453
H          3.14271       -0.27703       -2.19814
H          4.91618       -0.32880       -1.92990
C          3.92079        2.03597       -1.07565
H          3.15763        2.12814       -1.84923
H          3.76046        2.79809       -0.31210
H          4.91314        2.15468       -1.51676
C          4.76536        0.51806        0.66832
H          4.61030        1.31652        1.39485
H          4.55330       -0.44308        1.13658
H          5.78596        0.55525        0.27982
