37
2sa1dma1tma_45.log	Energy: -1073005.5169158
S          0.81200        0.50658        0.38813
O          1.69553       -0.47743        1.08845
O         -0.46083        0.70519        1.11268
O          1.52553        1.74517        0.05013
O          0.45371       -0.13023       -1.02323
H         -0.22310       -0.89262       -0.90803
S         -2.58323       -1.62488       -0.13881
O         -3.56002       -2.68820       -0.14882
O         -1.23655       -1.98802       -0.66436
O         -3.05134       -0.35003       -0.77111
O         -2.35847       -1.25813        1.41936
H         -2.61490        1.08767       -0.48995
H         -1.60255       -0.63222        1.47359
N         -2.69611        2.16048       -0.44520
C         -1.57045        2.81973       -1.14731
C         -2.87405        2.58251        0.96432
H         -3.56035        2.33488       -0.95832
H         -0.65786        2.67684       -0.56948
H         -1.45091        2.35206       -2.12453
H         -1.78338        3.88520       -1.25713
H         -1.95002        2.35727        1.49495
H         -3.09552        3.65109        1.00289
H         -3.69322        2.00569        1.39438
N          4.01562       -0.38687       -0.06285
C          4.69102        0.82243        0.46406
H          4.03872        1.67692        0.27877
H          4.83229        0.70385        1.53883
H          5.65736        0.94902       -0.03101
C          4.72625       -1.63592        0.28487
H          4.82353       -1.69881        1.36914
H          4.14116       -2.48396       -0.07242
H          5.71455       -1.63854       -0.18160
C          3.75556       -0.27895       -1.52029
H          3.14950       -1.12977       -1.83233
H          3.19308        0.63726       -1.70034
H          4.70743       -0.26522       -2.05725
H          3.04700       -0.42439        0.41831
