30
2sa1a1eda_110.log	Energy: -1033763.5115509
S          0.07480        2.04112       -0.00102
O         -0.12483        1.05260       -1.12780
O          1.42375        2.63015       -0.06025
O         -1.04793        2.96408        0.09880
O         -0.01912        1.16782        1.33739
H          0.63253        0.40171        1.30722
S          1.68416       -1.80099        0.04514
O          1.69580       -0.76751        1.13259
O          2.74747       -1.45775       -0.94041
O          1.64098       -3.17335        0.49058
O          0.28060       -1.56854       -0.73150
H          0.25011       -0.62479       -1.01807
H         -1.90222       -1.19851        0.20543
H         -2.25668        0.04669        1.40279
H         -3.94784       -1.85382        1.45274
H         -4.71290       -0.30527        1.08395
H         -4.07506       -2.38063       -0.88438
H         -5.51332       -1.65376       -0.60153
H         -1.75083        0.71023       -1.01179
H         -3.37842        0.19361       -1.28457
C         -2.63705       -0.44788        0.50948
C         -4.01898       -1.06051        0.69895
N         -2.70719        0.55623       -0.59396
N         -4.51117       -1.50702       -0.60519
H         -3.00028        1.47697       -0.26030
N          3.57155        0.93991       -0.14610
H          3.72985        0.72603        0.83765
H          4.40664        1.33669       -0.56702
H          3.29643        0.01513       -0.60116
H          2.76878        1.61394       -0.19592
