24
2sa1dma_01.log	Energy: -963530.0924517
S          1.49878       -1.21800       -0.09048
O          2.35050       -0.22890       -0.76024
O          0.88012       -0.66756        1.14649
O          0.50857       -1.90130       -0.94238
O          2.54149       -2.35446        0.37052
H          2.04885       -3.15994        0.58180
S         -2.27413       -0.03200        0.00307
O         -3.68137        0.19751        0.12944
O         -1.40372        1.07623       -0.40856
O         -1.73399       -0.58554        1.37877
O         -2.06412       -1.22279       -1.00525
H         -0.73491       -0.66031        1.35670
H         -1.10046       -1.47457       -1.06785
N          1.09886        2.12860       -0.07717
C          1.13823        3.21340       -1.08109
C          1.43809        2.54034        1.30326
H          0.14901        1.70531       -0.08469
H          2.14294        3.63628       -1.11832
H          0.87416        2.79524       -2.05203
H          0.41701        3.98314       -0.80456
H          2.44002        2.97144        1.31274
H          0.71018        3.27702        1.64545
H          1.40543        1.65199        1.93392
H          1.72370        1.34628       -0.36778
