30
2sa1a1eda_66.log	Energy: -1033764.2903341
S          2.86189       -0.06322       -0.00716
O          2.75618       -0.82706       -1.27129
O          2.75774        1.39598       -0.19124
O          1.98215       -0.59200        1.04725
O          4.35359       -0.33900        0.57078
H          4.98841        0.09924       -0.01228
S         -2.31690       -1.04857        0.06228
O         -3.07222        0.17837       -0.21034
O         -1.89839       -1.78038       -1.15720
O         -1.20552       -0.89808        1.02047
O         -3.33396       -2.03777        0.85881
H         -4.17494       -2.04782        0.38200
H         -1.78945        1.81976        1.35546
H         -0.52095        2.97328        1.83772
H         -2.37270        3.92522        0.31606
H         -0.73019        4.17323       -0.29740
H         -2.50237        1.99878       -1.20106
H         -1.86631        3.23769       -2.10830
H         -0.02903        0.59403        0.79279
H         -0.26426        1.47060       -0.61643
C         -0.97477        2.45053        0.99539
C         -1.48772        3.41197       -0.08216
N          0.02110        1.53856        0.37855
N         -1.72318        2.64708       -1.29996
H          1.00571        1.84825        0.38943
N          0.68152       -2.51653       -0.56012
H          0.71104       -2.08512        0.37534
H         -0.27130       -2.33137       -0.95184
H          1.43498       -2.03259       -1.09196
H          0.86371       -3.51380       -0.49811
