30
2sa1a1eda_146.log	Energy: -1033754.9458458
S         -1.82786       -1.44359       -0.24403
O         -1.70190       -2.85683       -0.51789
O         -0.84272       -0.57309       -0.97602
O         -3.18448       -0.85899       -0.38926
O         -1.51202       -1.17477        1.31942
H         -3.01419        0.65082       -0.74188
H         -0.54260       -1.22750        1.46325
S          2.18073       -0.55020        0.40843
O          3.54011       -1.02294        0.54481
O          1.22070       -0.77926        1.47726
O          2.20831        1.02187        0.18602
O          1.62684       -1.10629       -0.94315
H          3.06395        1.26378       -0.34257
H          0.61393       -0.94165       -1.01253
H         -3.03675        3.45703        0.25924
H         -3.55410        1.96238        1.08564
H         -1.30506        2.81752        1.91360
H         -1.22244        1.19057        1.23643
H         -0.17268        3.61023        0.02472
H          0.41520        2.07556       -0.00774
H         -3.54176        2.07147       -1.51900
H         -1.89444        1.82096       -1.28769
C         -2.80299        2.40233        0.42760
C         -1.38538        2.24089        0.98483
N         -2.84103        1.69997       -0.88344
N         -0.43338        2.63388       -0.04946
N          4.47728        1.38634       -1.08276
H          4.93783        0.54757       -0.73377
H          5.05288        2.18836       -0.84843
H          4.42573        1.31536       -2.09410
