30
2sa1a1eda_25.log	Energy: -1033766.4520854
S          0.96762       -2.14699        0.13106
O          2.25242       -2.70578        0.52036
O          1.08784       -1.17356       -1.01326
O         -0.14988       -3.07405       -0.10417
O          0.40376       -1.24446        1.35356
H          0.83504       -0.35549        1.35194
S          0.63328        2.08537        0.10758
O         -0.68668        1.55935       -0.24439
O          1.39047        1.25096        1.07320
O          1.48923        2.48619       -1.02856
O          0.25593        3.45595        0.88980
H          1.07566        3.92253        1.10119
H         -3.27822       -1.69536        0.76259
H         -2.07717       -0.57157        1.43160
H         -4.35352        0.51829        1.21351
H         -3.12214        1.31619        0.22439
H         -5.24571       -0.43707       -0.76384
H         -4.74392        1.00974       -1.34123
H         -2.51784       -0.89014       -1.43654
H         -1.21326       -0.16943       -0.67524
C         -2.74367       -0.75759        0.58960
C         -3.70499        0.39792        0.33678
N         -1.90182       -0.94145       -0.61841
N         -4.43072        0.14836       -0.91108
H         -1.37801       -1.84112       -0.58515
N          3.20274        0.31517       -1.05379
H          2.38386       -0.39544       -1.07888
H          2.76039        1.24910       -1.18344
H          3.61525        0.27804       -0.12377
H          3.90104        0.11423       -1.76290
