33
2sa1ma1eda_160.log	Energy: -1058409.4761788
S         -2.85542        0.02264        0.18266
O         -4.22838        0.43093        0.04104
O         -1.83088        0.62439       -0.66897
O         -2.35235        0.42423        1.66409
O         -2.77695       -1.51290        0.15343
H         -3.01700        0.14501        2.31025
H         -1.81640       -1.92992       -0.06524
S          0.63691       -1.73569       -0.27940
O         -0.61406       -2.53095       -0.43919
O          1.86249       -2.44307       -0.59752
O          0.54888       -0.57277       -1.42053
O          0.63680       -1.00308        1.00854
H         -0.32731       -0.14131       -1.33343
H          1.36115        0.51925        0.76599
N         -0.12656        3.14027       -0.04371
H         -0.87209        2.46316        0.11525
C         -0.07089        3.45155       -1.47869
H         -1.01336        3.84135       -1.87919
H          0.71827        4.18504       -1.66409
H          0.17608        2.54076       -2.03064
H         -0.36177        3.97059        0.49046
H          3.77618        2.24405        0.82110
H          2.97512        1.52440        2.24008
H          4.95905        0.14657        1.38254
H          3.43416       -0.74251        1.43179
H          4.94756       -0.12399       -0.89135
H          3.60562       -1.08312       -0.74692
H          1.33123        2.16656        0.37673
H          2.20557        1.03073       -0.54286
C          3.20667        1.38366        1.18227
C          3.96528        0.07222        0.92900
N          1.94639        1.31108        0.41425
N          4.01493       -0.18372       -0.50701
