37
2sa1dma1tma_65.log	Energy: -1072991.6194448
S         -0.01583       -0.15206       -0.34509
O          0.27199       -0.54156        1.04049
O         -0.89192        1.03724       -0.46728
O          1.21367       -0.03454       -1.16457
O         -0.78940       -1.37184       -1.04586
H         -1.70568       -1.40969       -0.69009
S         -4.06990        0.06177        0.22306
O         -5.25561        0.08713        1.03763
O         -3.30383       -1.16071        0.06025
O         -4.46418        0.46628       -1.28719
O         -3.14684        1.23125        0.68164
H         -5.10455        1.19169       -1.26088
H         -2.21827        1.16592        0.25176
N          3.34346        1.78310       -0.10434
C          4.31602        2.70610       -0.67138
C          2.64956        2.34620        1.04918
H          2.64538        1.54286       -0.80434
H          5.11849        2.88503        0.05332
H          4.76324        2.27018       -1.56987
H          3.88443        3.68412       -0.94112
H          3.36145        2.48916        1.87127
H          2.17754        3.31936        0.84006
H          1.87040        1.65587        1.38434
N          3.11875       -1.43269        0.17555
C          4.35701       -1.35410       -0.63408
H          4.11077       -1.57527       -1.67329
H          4.73999       -0.33638       -0.55161
H          5.08130       -2.07954       -0.25662
C          3.35836       -1.05876        1.59205
H          3.82539       -0.07445        1.59955
H          2.39275       -1.01721        2.09551
H          4.01088       -1.80695        2.04842
C          2.45200       -2.75494        0.05945
H          1.52787       -2.72237        0.63657
H          2.21549       -2.93512       -0.98932
H          3.12390       -3.52778        0.43894
H          2.44666       -0.74050       -0.24081
