33
2sa1ma1eda_161.log	Energy: -1058411.1648570
S         -0.59074       -1.67677       -0.46132
O         -1.84528       -2.38244       -0.66260
O          0.62058       -2.53519       -0.40960
O         -0.37042       -0.50601       -1.34389
O         -0.74241       -1.05069        1.03606
H         -1.36875        0.78933       -1.00122
H          0.12283       -0.65328        1.27340
S          2.86364       -0.01816        0.36519
O          4.18930        0.27804        0.83973
O          1.70985        0.19681        1.22681
O          2.55005        0.93552       -0.90286
O          2.86151       -1.44407       -0.23526
H          3.29673        0.89654       -1.51749
H          1.91103       -1.87244       -0.34087
N         -4.03249       -0.37973       -0.06198
H         -4.95615       -0.36799       -0.48327
C         -4.13331       -0.55440        1.39462
H         -4.71490       -1.43694        1.68458
H         -3.12539       -0.66766        1.80008
H         -4.59595        0.33012        1.84220
H         -3.53032       -1.18093       -0.45267
H         -2.29525        2.77235        1.00978
H         -1.30052        1.32946        1.31145
H          0.14124        3.37139        1.13787
H          0.48694        2.21400       -0.14379
H         -0.93787        4.74470       -0.44956
H          0.20758        4.07613       -1.40409
H         -2.94465        0.91956       -0.44928
H         -2.18724        2.21743       -1.33688
C         -1.51967        2.12134        0.59489
C         -0.26826        2.91072        0.23054
N         -2.05920        1.48893       -0.63091
N         -0.59885        3.86727       -0.82846
