33
2sa1ma1eda_49.log	Energy: -1058428.2850410
S          1.23347        1.46639       -0.78497
O          1.73103        0.31676       -1.56797
O          1.07031        1.04432        0.65956
O          1.91684        2.73084       -0.94535
O         -0.28074        1.74020       -1.27972
H         -0.75467        0.87404       -1.36153
S         -2.27327       -1.14097       -0.09784
O         -1.47763       -0.66121       -1.25069
O         -1.59658       -2.18030        0.68063
O         -2.83344       -0.02463        0.69755
O         -3.55092       -1.91575       -0.71782
H         -4.06085       -1.29124       -1.25169
N         -1.21757        1.93039        1.71148
H         -1.23326        1.87701        2.72752
H         -0.25921        1.63259        1.36769
C         -1.54752        3.29054        1.22148
H         -1.47271        3.27415        0.13498
H         -2.55774        3.55626        1.53258
H         -0.82556        4.00223        1.62152
H         -1.88340        1.21307        1.33880
H          2.18318       -3.39764        0.90496
H          2.42849       -3.18655       -0.85103
H          4.39263       -2.40378        0.55757
H          3.71986       -1.13285       -0.47182
H          4.04615       -0.92203        2.21706
H          2.93672       -0.03624        1.38320
H          0.20536       -2.32361        0.05537
H          1.09618       -1.20780        0.86906
C          2.32204       -2.66831        0.10415
C          3.51974       -1.76395        0.40230
N          1.10604       -1.82455        0.04661
N          3.24458       -0.97973        1.60416
H          1.14775       -1.16878       -0.76212
