34
2sa1ma1tma_27.log	Energy: -1048348.8634987
S         -0.18291        1.71094       -0.26938
O          0.94138        2.50870       -0.74396
O         -0.89653        0.93814       -1.32214
O          0.28343        0.76137        0.82413
O         -1.23380        2.65675        0.38366
H         -2.22303        2.25190        0.26696
S         -0.59461       -2.32063       -0.12988
O         -1.12951       -3.64190        0.03947
O          0.82334       -2.13225       -0.41723
O         -1.43986       -1.60463       -1.25567
O         -0.94031       -1.48398        1.17208
H         -1.16363       -0.64170       -1.34401
H         -0.48381       -0.58461        1.11601
N         -3.53868        1.61409        0.03753
H         -4.29732        2.28863        0.00300
C         -3.81500        0.55643        1.02493
H         -4.75931        0.03737        0.83428
H         -3.00484       -0.17416        1.00239
H         -3.84693        1.00224        2.02103
H         -3.44259        1.21546       -0.89380
N          2.88237        0.19484        0.27974
C          3.54744        1.44121        0.73701
H          3.09357        2.28024        0.20955
H          3.38081        1.55382        1.80867
H          4.61709        1.37111        0.52747
C          3.34403       -0.99658        1.03453
H          3.16911       -0.82547        2.09737
H          2.76898       -1.85936        0.69977
H          4.41090       -1.14231        0.85111
C          3.01759        0.01067       -1.19100
H          2.43943       -0.86734       -1.47738
H          2.61476        0.89844       -1.67906
H          4.07488       -0.12134       -1.43161
H          1.85684        0.32161        0.48013
