36
2sa1dma1eda_147.log	Energy: -1083075.1749190
S          0.68026        1.00935        0.74067
O          1.02305       -0.46165        0.79123
O          0.25317        1.34958       -0.64998
O         -0.27615        1.39975        1.76785
O          2.01582        1.77427        1.01434
H          2.73611        1.54027        0.27790
S         -0.86391       -2.81489       -0.05429
O         -1.04021       -4.21051       -0.32797
O         -2.00813       -1.91911       -0.22276
O         -0.31805       -2.65724        1.42453
O          0.33435       -2.26626       -0.93456
H          0.09742       -1.76030        1.52341
H          0.69769       -1.44553       -0.48525
N          3.80757        1.19429       -0.75269
C          3.40080       -0.00692       -1.49259
C          5.09089        1.03255       -0.06377
H          3.86542        1.97794       -1.39723
H          3.26181       -0.82402       -0.78084
H          2.44462        0.18307       -1.98424
H          4.14776       -0.30659       -2.23896
H          4.98559        0.25443        0.69666
H          5.89933        0.74678       -0.74953
H          5.35565        1.96618        0.43702
H         -4.05420        0.79181        0.35931
H         -2.48431        0.99559        1.18966
H         -3.69713        3.18449        1.02801
H         -2.16182        3.19166        0.16042
H         -4.82145        3.06175       -1.05671
H         -3.54821        4.00225       -1.46323
H         -2.35385       -0.30436       -0.87852
H         -2.83052        1.10842       -1.71989
C         -3.06914        1.26344        0.30926
C         -3.17312        2.77412        0.15637
N         -2.37035        0.72786       -0.88816
N         -3.80971        3.08355       -1.12686
H         -1.36162        1.03513       -0.88305
