37
2sa1dma1tma_08.log	Energy: -1073019.1803760
S          0.44872        1.85563       -0.84968
O          1.20207        0.70919       -1.43616
O          0.30445        1.62264        0.62824
O          0.93321        3.17133       -1.19633
O         -1.04031        1.75584       -1.45389
H         -1.33400        0.80778       -1.46781
S         -0.92225       -1.87626       -0.74600
O         -1.89925       -0.76074       -1.02324
O         -0.22435       -1.58388        0.53499
O         -1.47396       -3.20561       -0.87252
O          0.18824       -1.75075       -1.89963
H          0.56120       -0.83546       -1.87256
N         -2.15430        0.67483        1.28577
C         -2.23483       -0.09148        2.54458
C         -3.13498        1.77216        1.15525
H         -1.18675        1.06042        1.15628
H         -3.23351       -0.51965        2.64557
H         -1.49564       -0.89089        2.49250
H         -2.03169        0.57414        3.38559
H         -4.14456        1.36032        1.19427
H         -2.99044        2.48459        1.96900
H         -2.96543        2.26741        0.19897
H         -2.23992        0.02446        0.47101
N          2.34920       -0.49264        0.93875
C          2.84201       -1.68569        0.20297
H          2.07807       -2.45941        0.25807
H          2.99933       -1.40530       -0.83801
H          3.77817       -2.01715        0.65705
C          3.29392        0.64932        0.83534
H          3.45846        0.86424       -0.21954
H          2.83934        1.51767        1.31106
H          4.22890        0.37662        1.32901
C          2.01733       -0.80787        2.34894
H          1.59665        0.08795        2.80638
H          1.28102       -1.61014        2.35132
H          2.92855       -1.10861        2.87016
H          1.46330       -0.20714        0.48696
