30
2sa1a1eda_14.log	Energy: -1033767.9360386
S         -0.98453        1.93642       -0.16194
O         -1.80709        1.30598        0.85699
O          0.10226        2.81723        0.31920
O         -0.48718        0.97801       -1.19470
O         -2.00942        2.91746       -0.94478
H         -1.50495        3.44681       -1.57761
S          2.24569       -1.10739       -0.20099
O          3.66295       -1.31201        0.01622
O          1.52930       -2.13934       -0.97797
O          1.47130       -0.76416        1.04114
O          2.18520        0.26870       -1.07000
H          1.96515        0.66863        1.51480
H          1.24594        0.52348       -1.22262
H         -1.27136       -2.96075        1.04757
H         -0.96588       -1.25448        1.43341
H         -3.35733       -1.91515        1.93603
H         -3.24193       -0.64255        0.71817
H         -3.87470       -3.45909        0.20603
H         -4.62680       -2.11731       -0.34913
H         -0.14956       -2.03351       -0.79052
H         -1.81181       -2.15810       -1.21202
C         -1.53875       -1.92984        0.79936
C         -3.04063       -1.70029        0.90772
N         -1.12475       -1.69666       -0.60688
N         -3.72360       -2.50641       -0.10798
H         -1.10247       -0.68368       -0.83022
N          2.25284        1.70014        1.54066
H          2.46927        2.01687        2.48094
H          1.44984        2.23361        1.12860
H          3.06424        1.79716        0.93166
