30
2sa1a1eda_22.log	Energy: -1033767.4479554
S         -0.64102        2.23139       -0.28197
O         -0.45976        1.50862        1.02403
O         -1.70078        1.57958       -1.08045
O         -0.70484        3.67273       -0.16436
O          0.76624        1.96406       -1.05498
H          0.90108        0.99514       -1.18154
S          1.94175       -1.42755       -0.08565
O          1.13910       -0.76310       -1.15740
O          2.91435       -0.48651        0.51368
O          1.12985       -2.20257        0.83602
O          2.84552       -2.53497       -0.84779
H          3.48814       -2.07622       -1.40604
H         -1.47402       -2.30816        1.02554
H         -1.47851       -0.55862        1.33405
H         -3.70125       -1.59151        1.93560
H         -3.84887       -0.39724        0.64292
H         -3.92987       -3.30348        0.29134
H         -4.97452       -2.17370       -0.26407
H         -0.60625       -1.25343       -0.88827
H         -2.20951       -1.70055       -1.25311
C         -1.93244       -1.35731        0.74650
C         -3.44821       -1.38617        0.88772
N         -1.60811       -1.10047       -0.68031
N         -3.99873       -2.35522       -0.06299
H         -1.78027       -0.09106       -0.91241
N          2.08909        1.85409        1.59211
H          1.02519        1.75673        1.52467
H          2.39821        2.04897        2.53961
H          2.49059        0.95249        1.23413
H          2.35877        2.60861        0.96254
