30
2sa1a1eda_156.log	Energy: -1033751.3965393
S          0.58007        1.97824       -0.13964
O         -0.86675        2.26858        0.05002
O          1.28762        1.61336        1.09825
O          0.84588        1.07205       -1.25825
O          1.22188        3.42476       -0.49950
H          0.67001        3.83752       -1.17746
S         -2.47522       -0.83583       -0.16401
O         -3.73836       -1.51637       -0.03218
O         -1.40587       -1.04040        0.79193
O         -1.80278       -1.27662       -1.56766
O         -2.76583        0.67734       -0.36156
H         -2.47894       -1.26042       -2.25964
H         -1.94142        1.28131       -0.20783
H          1.45724       -2.86550        0.14289
H          0.62459       -1.43235       -0.50109
H          2.31471       -2.29621       -2.14070
H          2.68042       -0.66022       -1.58836
H          4.07534       -3.10600       -0.77414
H          4.70363       -1.67506       -1.25206
H          1.45340       -1.17177        1.86532
H          3.02689       -1.28145        1.16296
C          1.58603       -1.82795       -0.17859
C          2.63695       -1.70676       -1.27333
N          2.04365       -1.04689        0.99619
N          3.94315       -2.10095       -0.73654
H          1.96717       -0.02532        0.82426
N          0.31377       -0.66942        3.13863
H         -0.59628       -0.96687        2.79400
H          0.35833        0.33797        2.98944
H          0.35911       -0.84679        4.13591
