21
2sa1ma_30.log	Energy: -938831.9808393
S          1.56683       -1.05078       -0.06175
O          0.70527       -0.52138       -1.10417
O          2.98687       -0.83695       -0.08949
O          1.04952       -0.58980        1.34565
O          1.26523       -2.62201       -0.07774
H          0.06655       -0.43128        1.33755
H          1.95490       -3.08854        0.41828
S         -2.41229        0.28775        0.09345
O         -1.54567       -0.08482        1.19849
O         -3.54129        1.14837        0.28978
O         -1.55245        0.89655       -1.07453
O         -2.89606       -1.12072       -0.49950
H         -0.68948        0.41336       -1.15831
H         -3.63813       -0.97851       -1.10644
N          3.13369        2.51626       -0.30830
H          3.09492        2.86755       -1.25796
C          1.84785        2.66178        0.36160
H          0.99539        2.18563       -0.15076
H          1.91754        2.23407        1.36547
H          1.61307        3.72397        0.47572
H          3.41836        1.54384       -0.34992
