39
2sa1eda1tma_85.log	Energy: -1107741.1896479
S          0.97437       -0.02978        0.45025
O          1.09928        0.82139       -0.76261
O         -0.31218        0.34249        1.17602
O          0.93433       -1.48550        0.09079
O          2.14366        0.20684        1.36961
H          3.35481        0.13447        0.53796
S         -2.43546       -2.02310       -0.17655
O         -2.36442       -1.03297       -1.25855
O         -3.58268       -2.88564       -0.11730
O         -1.14313       -2.89795       -0.20350
O         -2.34819       -1.24404        1.20164
H         -0.29449       -2.32017       -0.13374
H         -1.50431       -0.68420        1.25752
H         -3.82433        2.05735       -0.83753
H         -3.33388        1.22882        0.65152
H         -3.76871        3.65408        1.10142
H         -2.07387        3.24304        1.38024
H         -3.11532        4.71536       -0.92226
H         -1.83794        5.06903        0.03656
H         -1.91444        0.70897       -1.24304
H         -1.40762        2.34340       -1.27523
C         -3.05171        2.00166       -0.06613
C         -2.83796        3.35246        0.60391
N         -1.78624        1.58333       -0.70696
N         -2.35272        4.30923       -0.39096
H         -1.08257        1.31728        0.02424
N          4.22198        0.10748       -0.13566
C          4.29554        1.44856       -0.75932
H          3.33029        1.64621       -1.22836
H          4.47545        2.18953        0.02059
H          5.10578        1.46911       -1.49328
C          5.41073       -0.20579        0.68195
H          5.51929        0.55557        1.45542
H          5.26674       -1.17830        1.15388
H          6.30269       -0.22579        0.04969
C          3.94613       -0.94479       -1.14497
H          3.77618       -1.89044       -0.63027
H          3.03659       -0.67490       -1.68211
H          4.79604       -1.02239       -1.82872
