28
2sa1a1dma_55.log	Energy: -999019.0591643
S          0.55047        1.08800       -0.30430
O          1.85896        1.75930       -0.21003
O         -0.59859        1.99635       -0.09340
O          0.39886        0.20579       -1.46558
O          0.59511        0.10772        1.00022
H          1.17950       -1.62481       -1.18218
H         -0.29843       -0.28448        1.11871
S         -3.09829       -0.37488        0.25165
O         -4.45444       -0.64816        0.64565
O         -1.98576       -0.81238        1.07939
O         -2.81090       -1.08566       -1.16448
O         -2.98618        1.14326       -0.07007
H         -3.55375       -0.91488       -1.76126
H         -2.01307        1.47531       -0.11959
N          3.56801       -0.32221        0.21182
C          4.81658       -0.30105       -0.57160
C          3.75598       -0.44333        1.67173
H          3.00854        0.54380        0.01829
H          5.35928       -1.23526       -0.41542
H          4.56623       -0.19243       -1.62722
H          5.43414        0.54174       -0.25668
H          4.24517       -1.39303        1.89658
H          4.36997        0.38462        2.02986
H          2.77286       -0.40055        2.14014
N          1.82846       -2.29108       -0.75126
H          1.31063       -2.76988       -0.02037
H          2.95591       -1.12630       -0.12825
H          2.08095       -2.98411       -1.44835
