25
2sa1a1ma_23.log	Energy: -974367.0887499
S          1.54014        0.67250        0.11819
O          1.29960        2.01544        0.67563
O          1.30499       -0.44384        1.06988
O          0.73642        0.47625       -1.13080
O          3.05865        0.62576       -0.26318
H          3.36562       -0.35710       -0.31466
S         -1.86448       -1.36573        0.01537
O         -2.91701       -2.33218       -0.08836
O         -2.21953        0.05162        0.16797
O         -0.94204       -1.77744        1.22221
O         -0.93092       -1.49933       -1.24748
H         -0.10505       -1.22194        1.24165
H         -0.24543       -0.75663       -1.25933
N         -1.14405        2.50201       -0.40198
H         -0.20597        2.48265        0.07119
H         -0.95904        2.59407       -1.39961
C         -2.03891        3.55581        0.12120
H         -2.99924        3.50612       -0.39111
H         -2.18655        3.38112        1.18608
H         -1.58029        4.53253       -0.03057
H         -1.54487        1.55072       -0.25421
N          3.66994       -1.93376       -0.23155
H          3.04846       -2.22350        0.52015
H          4.61954       -2.18774        0.01994
H          3.41318       -2.45158       -1.06610
