36
2sa1dma1eda_31.log	Energy: -1083089.4526294
S         -2.40297       -1.13493       -0.24023
O         -2.93416        0.14871       -0.75342
O         -1.90137       -2.02856       -1.30067
O         -1.47998       -0.96018        0.88728
O         -3.67235       -1.90359        0.42736
H         -4.28664       -2.13904       -0.28104
S          1.92335        1.36929       -0.39511
O          1.95254        0.34360       -1.46156
O          1.01002        2.48998       -0.71126
O          1.75993        0.82124        0.95111
O          3.41271        2.01998       -0.36681
H          3.57974        2.42904       -1.22685
N         -1.51192        2.24706        0.33183
C         -2.30028        3.44475       -0.02105
C         -1.30380        2.05858        1.78643
H         -1.99843        1.40992       -0.06133
H         -1.78397        4.33566        0.33916
H         -2.40419        3.48981       -1.10502
H         -3.28670        3.37099        0.43894
H         -0.79009        2.93447        2.18525
H         -2.27312        1.92792        2.26938
H         -0.69597        1.16677        1.92842
H         -0.57488        2.30798       -0.12483
H          1.42841       -3.89937        0.03435
H          2.22409       -3.21626       -1.41066
H          3.71616       -3.24509        0.63615
H          3.48207       -1.62811       -0.03157
H          2.94220       -2.35724        2.55965
H          2.34720       -1.00745        1.81606
H         -0.05854       -2.28176       -1.00137
H          0.46846       -1.71902        0.44355
C          1.86478       -2.99850       -0.40224
C          2.97798       -2.45042        0.49222
N          0.79297       -1.98255       -0.49872
N          2.41522       -2.02049        1.76627
H          1.15339       -1.11311       -0.94700
