36
2sa1dma1eda_239.log	Energy: -1083058.9043264
S          0.03682       -0.65081       -0.82353
O          1.24027       -0.97974       -1.60203
O         -1.16267       -1.41914       -1.21856
O          0.28360       -0.70810        0.64119
O         -0.24841        0.88011       -1.19161
H          1.88653       -1.28998        0.90169
H         -1.13632        1.13172       -0.85028
S         -3.73451        0.32607        0.30815
O         -2.77738        1.28841       -0.20696
O         -5.14206        0.62093        0.33667
O         -3.54563       -1.05582       -0.38962
O         -3.23557        0.05613        1.81637
H         -2.58091       -1.20773       -0.68831
H         -3.93171       -0.41817        2.29315
N          2.78490       -1.70172        0.55118
C          2.62472       -3.17055        0.45408
C          3.94963       -1.24401        1.34016
H          2.78948       -1.31800       -0.40497
H          2.47190       -3.57800        1.45388
H          1.75852       -3.38067       -0.17299
H          3.52197       -3.60154        0.00812
H          3.88269       -1.67640        2.33995
H          4.86596       -1.58494        0.85509
H          3.91631       -0.14928        1.40035
H          3.63477        3.35408       -0.74487
H          2.08955        2.95926       -1.48184
H          1.74277        3.37183        0.86564
H          1.43899        1.66037        0.54441
H          3.93575        2.70136        1.68601
H          2.78231        1.88155        2.48441
H          4.07822        0.94538       -0.74070
H          2.71176        0.72224       -1.65392
C          2.85407        2.58189       -0.79655
C          2.22289        2.42103        0.58703
N          3.43494        1.38595       -1.38913
N          3.22293        1.98437        1.57499
