30
2sa1a1eda_181.log	Energy: -1033750.6654971
S          0.74807       -1.62171        0.12149
O         -0.47854       -2.45387        0.07753
O          2.00082       -2.36035        0.07264
O          0.75231       -0.80835       -1.31792
O          0.67507       -0.56133        1.14263
H         -0.12864       -0.38517       -1.41253
H          1.99385        0.87116        0.71193
S         -2.76125        0.13003       -0.17347
O         -4.11102        0.51221       -0.48882
O         -1.66856        0.47777       -1.07078
O         -2.32745        0.84018        1.21123
O         -2.74512       -1.38123        0.17105
H         -3.00394        0.67516        1.88366
H         -1.79395       -1.80448        0.17017
H          0.38491        2.53865       -1.18172
H          0.88203        4.07854       -0.48111
H          2.84606        2.79539       -1.37720
H          2.96727        3.09133        0.37918
H          1.99514        0.58792       -0.87928
H          3.45474        0.69338       -0.08233
H         -0.31410        3.30843        1.26604
H         -0.08053        1.72865        0.94935
C          0.92943        2.99507       -0.34128
C          2.40004        2.58268       -0.40262
N          0.37706        2.63711        0.95826
N          2.49540        1.12663       -0.15453
N          4.56879       -0.72278        0.11916
H          5.08209       -0.77532        0.99367
H          5.22171       -0.94901       -0.62461
H          3.85864       -1.46127        0.13913
