30
2sa1a1eda_183.log	Energy: -1033747.9172754
S         -2.76631       -0.38836       -0.06368
O         -4.19527       -0.39862        0.15384
O         -2.12850       -1.52366       -0.71574
O         -2.35883        0.88217       -0.89006
O         -2.10350       -0.15773        1.34806
H         -2.97786        1.66380       -0.62360
H         -1.10484       -0.26877        1.28929
S          1.23402       -1.21894        0.13531
O          2.50683       -1.75640        0.62051
O          0.46709       -0.46556        1.15408
O          1.43198       -0.39369       -1.10225
O          0.36775       -2.47844       -0.28559
H          2.91715        0.01057       -1.06099
H         -0.55173       -2.18929       -0.50716
H          3.80261        2.82981       -0.81896
H          3.83302        3.05824        0.91582
H          5.23128        1.16796        0.49818
H          3.73278        0.51951        1.20587
H          4.48707        0.42651       -1.64040
H          4.23408       -0.83176       -0.56537
H          1.59680        1.86213       -0.59284
H          1.65167        2.02027        1.02108
C          3.46221        2.39230        0.12898
C          4.15583        1.04080        0.34418
N          2.01564        2.40573        0.15531
N          3.96601        0.12266       -0.82015
N         -4.09833        2.69400       -0.11136
H         -4.45550        3.34470       -0.80290
H         -3.82188        3.22118        0.71069
H         -4.84976        2.06198        0.15682
