25
2sa1a1ma_04.log	Energy: -974372.2791569
S          2.22059       -0.20260       -0.13893
O          2.13562       -1.30443        0.83144
O          1.14075       -0.20093       -1.14982
O          2.40230        1.13649        0.45490
O          3.59154       -0.54722       -0.92167
H          3.76734        0.15746       -1.56018
S         -2.23591       -0.30655       -0.30893
O         -2.15601        0.90466       -1.13468
O         -3.51262       -0.96943       -0.17081
O         -1.27468       -1.42043       -1.00158
O         -1.54732       -0.05481        1.02698
H         -0.39987       -1.00615       -1.19538
H         -0.85362       -1.43707        1.52442
N         -0.16686        2.21259        0.29390
H         -0.63232        1.47119        0.85828
H          0.85146        2.00892        0.31058
C         -0.51255        3.57405        0.74612
H         -0.04144        4.30470        0.08912
H         -1.59529        3.69211        0.71293
H         -0.15403        3.71407        1.76545
H         -0.54104        2.00843       -0.64256
N         -0.27232       -2.32721        1.53832
H          0.70662       -2.03886        1.29453
H         -0.64089       -2.91867        0.79328
H         -0.30885       -2.80286        2.43491
