25
2sa1a1ma_45.log	Energy: -974358.9709360
S         -2.22455       -0.79376       -0.23734
O         -2.87744        0.51657       -0.37121
O         -2.96585       -1.95518       -0.68801
O         -0.81457       -0.68677       -0.71331
O         -2.00584       -1.01764        1.38554
H         -2.67330       -1.65155        1.67911
S          2.31471       -0.41835       -0.07336
O          1.97102        0.72511       -0.89559
O          2.38223       -0.24683        1.36715
O          1.44935       -1.65888       -0.44015
O          3.74683       -0.90954       -0.58486
H          0.45492       -1.38872       -0.52926
H          4.13193       -1.50587        0.07357
N         -0.55583        2.12227       -0.44953
H         -0.37380        1.93845        0.58578
H          0.10940        1.51908       -0.94517
C         -0.39683        3.54266       -0.80614
H         -0.61166        3.68628       -1.86504
H         -1.08509        4.14195       -0.20994
H          0.62913        3.84689       -0.59843
H         -1.50364        1.74492       -0.62504
N         -0.14653        1.33890        2.19801
H         -0.83642        0.59288        2.28303
H         -0.24447        1.95136        3.00079
H          0.77206        0.89912        2.24288
