28
2sa1a1dma_46.log	Energy: -999023.8561228
S         -2.67991       -0.37448       -0.08758
O         -2.69302        1.01870       -0.59913
O         -2.50826       -1.39365       -1.12251
O         -1.77317       -0.53062        1.06948
O         -4.14389       -0.60689        0.57478
H         -4.79754       -0.62708       -0.13756
S          2.69508       -0.29641        0.03004
O          1.71628       -0.54882       -1.06454
O          2.99383        1.11871        0.25162
O          2.35344       -1.06316        1.23802
O          4.05450       -0.95839       -0.58430
H          4.79822       -0.64963       -0.04981
N         -0.52841        2.47286        0.06506
C          0.10746        1.98452        1.32009
C          0.32761        2.35484       -1.14803
H         -1.41399        1.92755       -0.11637
H          1.06991        2.47668        1.45403
H         -0.57182        2.18361        2.14853
H          0.25677        0.91102        1.23490
H          1.26471        2.88560       -0.98199
H          0.55063        1.30066       -1.31565
H         -0.22117        2.76795       -1.99444
H         -0.80480        3.44599        0.18721
N          0.06323       -2.33170        0.08125
H         -0.59272       -1.72764        0.62179
H         -0.48867       -2.97236       -0.48411
H          0.64919       -1.69403       -0.52271
H          0.70666       -2.80547        0.71299
