26
2sa1eda_88.log	Energy: -998251.6035250
S          2.31128        0.15883       -0.05919
O          2.07647       -1.31528       -0.02788
O          1.70787        0.79773       -1.23354
O          2.01773        0.85468        1.20198
O          3.91969        0.28512       -0.17825
H          4.22046       -0.32917       -0.86185
S         -1.31542       -1.62127        0.04233
O         -2.50167       -1.56305       -0.78710
O         -0.92970       -0.46038        0.81743
O         -1.53165       -2.77969        1.14005
O         -0.13549       -2.14149       -0.81053
H         -1.91820       -3.55473        0.70775
H          0.79713       -1.79621       -0.46847
H         -1.68193        1.58172        1.54624
H         -1.38998        3.33414        1.65891
H         -3.52174        2.71182        0.39820
H         -2.40697        3.70156       -0.54785
H         -2.73832        0.79687       -0.88491
H         -2.82766        1.99117       -2.01036
H          0.55048        1.75464        0.88004
H         -0.33963        1.66827       -0.52212
C         -1.47098        2.48632        0.97659
C         -2.54130        2.71165       -0.09683
N         -0.16621        2.25946        0.30901
N         -2.38437        1.71382       -1.14449
H          0.26428        3.11719       -0.03323
