37
2sa1dma1tma_21.log	Energy: -1073014.8158217
S         -0.58015       -1.96249       -0.67631
O         -0.22761       -1.43213        0.68927
O          0.70788       -1.61287       -1.59382
O         -0.68296       -3.40554       -0.74421
O         -1.71329       -1.18497       -1.21826
H          2.41424       -0.19074        0.17409
H         -1.99821        0.12725       -0.04141
S          0.94504        1.97062       -0.49621
O          1.28495        2.12923        0.92499
O         -0.47763        1.91414       -0.80954
O          1.43368        3.32284       -1.25573
O          1.74413        0.86962       -1.11976
H          2.38837        3.41109       -1.13580
H          0.86484       -0.64144       -1.61771
N          2.39268       -0.92554        0.90819
C          2.83035       -0.36431        2.20211
C          3.14455       -2.11760        0.46060
H          1.36501       -1.16990        0.94201
H          3.89356       -0.12270        2.14911
H          2.25646        0.54351        2.38773
H          2.65969       -1.10380        2.98631
H          4.19632       -1.85754        0.32948
H          3.04589       -2.90158        1.21290
H          2.71321       -2.45551       -0.48187
N         -2.65995        0.53854        0.65540
C         -1.89267        1.05706        1.81555
H         -1.29668        0.23686        2.21368
H         -1.23014        1.84974        1.47392
H         -2.59959        1.42751        2.56202
C         -3.40583        1.61082       -0.04886
H         -2.69170        2.37077       -0.36159
H         -3.88563        1.17603       -0.92601
H         -4.15530        2.02558        0.62913
C         -3.54604       -0.58385        1.05404
H         -4.01720       -0.99143        0.16082
H         -2.93141       -1.35636        1.51593
H         -4.29445       -0.21371        1.75835
