33
2sa1ma1eda_182.log	Energy: -1058407.8386552
S         -3.50730        0.14197       -0.27735
O         -2.47824        0.33312       -1.28576
O         -4.89923        0.27785       -0.61234
O         -3.31625       -1.21961        0.45341
O         -3.13256        1.23081        0.84994
H         -2.33214       -1.51285        0.48627
H         -3.82497        1.23673        1.52636
S          0.24601       -1.04907        0.39368
O         -0.89741       -1.98710        0.44028
O          1.56172       -1.71443        0.34154
O          0.16897       -0.34452       -1.07582
O          0.18242        0.03090        1.38119
H         -0.76288       -0.07844       -1.24599
H          3.27760        0.65667        2.07895
N          1.86207        2.13200       -0.38115
H          2.45801        2.62029       -1.04261
C          0.96115        3.04844        0.33082
H          0.33992        3.64940       -0.34249
H          0.30878        2.45165        0.97110
H          1.54903        3.72475        0.95787
H          1.31790        1.46089       -0.92293
H          4.19414       -1.80443       -0.38335
H          5.47729       -0.85523       -1.13928
H          5.22016       -0.36287        1.28397
H          5.00537        1.07689        0.25874
H          2.69136        1.11404        0.52921
H          2.65209       -0.51092        1.06187
H          3.83342       -0.46358       -2.62376
H          2.61912       -0.63351       -1.54924
C          4.47630       -0.79185       -0.70222
C          4.58239        0.10574        0.52934
N          3.54629       -0.23484       -1.68021
N          3.23764        0.34769        1.11093
