25
2sa1a1ma_51.log	Energy: -974356.7251424
S          1.58578       -1.11861        0.09426
O          2.60738       -0.51360        0.95818
O          0.33789       -1.42660        0.84845
O          1.33404       -0.40709       -1.16202
O          2.16966       -2.54732       -0.39987
H          2.39396       -3.07158        0.38117
S         -2.60364        0.03495       -0.22969
O         -3.93426       -0.10296       -0.76072
O         -1.68345        1.01747       -0.76521
O         -2.70472        0.44908        1.33557
O         -1.96419       -1.38028       -0.17668
H         -3.38547       -0.09105        1.76173
H         -1.00071       -1.38418        0.19226
N          0.79020        2.21440       -0.36120
H          0.24666        2.90957       -0.86745
H          0.55274        1.28773       -0.75453
C          0.50389        2.24900        1.09443
H          1.10708        1.47706        1.57348
H          0.77510        3.22934        1.48711
H         -0.55333        2.04755        1.25684
H          1.83424        2.32343       -0.52309
N          3.54840        1.94381       -0.53983
H          3.53259        1.11087        0.05517
H          4.28077        2.56244       -0.20781
H          3.80975        1.62641       -1.46890
