21
2sa1ma_21.log	Energy: -938854.0945366
S          1.17088       -1.01905       -0.12932
O          0.89993        0.48227       -0.09383
O          0.53853       -1.66040       -1.25982
O          2.61866       -1.24568        0.06056
O          0.53421       -1.56938        1.23206
H         -0.42234       -1.34534        1.24023
S         -2.56455        0.43882        0.12672
O         -2.00655       -0.46504        1.11497
O         -3.72973        1.23182        0.41753
O         -1.45492        1.40345       -0.40839
O         -2.87888       -0.50644       -1.13259
H         -0.52220        0.99285       -0.33394
H         -3.40880       -0.01450       -1.77612
N          3.36342        1.21917        0.61838
H          2.33447        1.34870        0.49683
H          3.66766        1.56465        1.52534
C          4.11344        1.80773       -0.51499
H          5.17317        1.58004       -0.40659
H          3.73156        1.35910       -1.43135
H          3.95909        2.88602       -0.53777
H          3.39156        0.16672        0.58228
