31
2sa1ma1dma_63.log	Energy: -1023676.6232232
S         -1.60813       -0.40910       -0.76743
O         -2.90272       -0.83776       -1.32843
O         -0.45815       -0.57541       -1.66910
O         -1.69137        0.95181       -0.17184
O         -1.40131       -1.42255        0.46535
H         -3.31433        1.14866        0.29953
H         -0.48357       -1.32980        0.82000
S          2.29925       -0.67315        0.47533
O          3.62710       -1.16707        0.76346
O          1.17131       -1.15991        1.26053
O          2.26815        0.88512        0.55991
O          2.04646       -0.97747       -1.05532
H          3.11147        1.26981        0.05064
H          1.08847       -0.80289       -1.30210
N          4.39862        1.66253       -0.67039
H          4.51148        0.97253       -1.40926
C          5.52551        1.59088        0.27478
H          6.49556        1.75530       -0.20576
H          5.38228        2.34320        1.05308
H          5.51446        0.60593        0.74445
H          4.34841        2.57298       -1.11751
N         -4.29203        0.75917        0.35302
C         -5.31711        1.78048        0.07308
C         -4.44270        0.04349        1.64025
H         -4.21331        0.05992       -0.41314
H         -5.29172        2.53979        0.85577
H         -5.10166        2.24003       -0.89142
H         -6.30152        1.31076        0.04694
H         -3.63240       -0.68268        1.72002
H         -4.38045        0.76334        2.45730
H         -5.40717       -0.46586        1.66152
