39
2sa1eda1tma_132.log	Energy: -1107717.1825162
S         -2.35804       -1.54932        0.27282
O         -3.67551       -1.36343        0.83073
O         -1.17200       -1.17451        1.02136
O         -2.15946       -3.12945        0.01688
O         -2.33065       -0.96835       -1.16723
H         -3.00829       -3.50455       -0.25707
H         -1.45576       -0.48821       -1.40096
S          1.08054        0.28055       -1.12222
O          2.01003        1.32276       -1.53508
O         -0.21002        0.24960       -1.83831
O          1.70916       -1.07559       -1.07629
O          0.74927        0.64681        0.41515
H          3.18810       -1.04839       -0.74589
H         -0.00279        0.08789        0.71871
H          5.72507        0.40899       -0.02938
H          4.23274        1.07311       -0.77554
H          4.39222        1.55028        1.71703
H          2.94949        0.65097        1.24969
H          5.25089       -0.40425        2.69526
H          3.65921       -0.74328        2.87245
H          4.78621       -1.35423       -1.26567
H          4.38057       -1.61456        0.34618
C          4.63256        0.35983       -0.05365
C          4.03756        0.58596        1.33609
N          4.24005       -1.01299       -0.47886
N          4.38394       -0.55280        2.19141
N         -2.36739        1.86416        0.36182
C         -3.76994        1.87070       -0.01615
H         -3.86194        1.67893       -1.08914
H         -4.30117        1.07702        0.51511
H         -4.25907        2.83963        0.20754
C         -2.21035        2.02683        1.79462
H         -2.72631        1.21563        2.31695
H         -1.14805        1.98398        2.05506
H         -2.61573        2.99171        2.16010
C         -1.62766        2.87780       -0.36967
H         -0.56976        2.83298       -0.09996
H         -1.70758        2.68903       -1.44338
H         -2.00391        3.89955       -0.16239
