30
2sa1a1eda_171.log	Energy: -1033752.6407274
S         -2.26250       -0.61378       -0.34204
O         -0.99159       -1.08693       -0.89168
O         -2.56940       -0.92949        1.03136
O         -2.45764        0.87848       -0.68468
O         -3.45167       -1.27612       -1.18825
H         -3.34790       -1.04658       -2.12303
S          0.71256        1.95060        0.00282
O          1.91850        1.33316       -0.56576
O          0.23139        1.33747        1.23696
O          1.12524        3.45336        0.43968
O         -0.36525        2.13123       -1.01881
H          1.49838        3.90540       -0.32955
H         -1.54308        1.41538       -0.80494
H          2.83162       -2.72094        1.04953
H          1.32305       -3.33636        0.32016
H          3.19552       -3.25797       -1.32336
H          1.85875       -2.21131       -1.80883
H          4.34354       -1.34410       -1.73722
H          3.16036       -0.33182       -1.22314
H          0.90756       -1.31248        1.68778
H          1.96295       -0.46927        0.66414
C          2.05109       -2.52170        0.31244
C          2.66616       -2.33466       -1.07082
N          1.34580       -1.28653        0.71935
N          3.61196       -1.22631       -1.04863
H          0.55695       -1.09850        0.08066
N         -0.16853       -1.00393        3.03255
H         -0.16206       -1.44370        3.94634
H         -1.10092       -1.10742        2.63225
H         -0.03014       -0.00290        3.15365
