33
2sa1ma1eda_43.log	Energy: -1058431.1187231
S          0.68574        1.67840       -0.10521
O          0.58616        0.91909        1.30528
O          1.98330        2.33014       -0.07922
O          0.60603        0.57260       -1.12916
O         -0.49195        2.56603       -0.21135
H         -2.03076        1.99993       -0.40072
S         -1.72414       -1.65638        0.12248
O         -0.57181       -2.56936        0.08064
O         -3.04669       -2.24466        0.12817
O         -1.54722       -0.56858        1.13405
O         -1.68764       -0.83052       -1.31147
H         -0.24070        0.35059        1.31533
H         -0.81724       -0.36037       -1.37067
N         -2.96951        1.56782       -0.61499
H         -3.39396        2.09613       -1.37465
C         -3.84269        1.51367        0.58549
H         -4.79136        1.04831        0.32025
H         -3.33181        0.90485        1.33008
H         -4.00160        2.52624        0.95508
H         -2.74067        0.61569       -0.96248
H          3.75244       -2.54588        0.19761
H          3.16283       -2.19912       -1.44810
H          5.13359       -0.71381       -0.72451
H          3.69201        0.18429       -1.20465
H          4.88178        0.17924        1.36437
H          3.59645        1.06891        0.81736
H          1.27676       -2.23158        0.21563
H          2.11286       -1.00023        1.02074
C          3.29099       -1.79123       -0.44357
C          4.10070       -0.48737       -0.44169
N          1.96064       -1.46698        0.11541
N          4.00004        0.13758        0.87283
H          1.48006       -0.75294       -0.47679
