28
2sa1a1dma_27.log	Energy: -999026.8749705
S          0.68896       -1.83355       -0.08596
O          1.83998       -1.05764       -0.57589
O          0.18736       -1.38585        1.23048
O         -0.36956       -2.01469       -1.09674
O          1.24528       -3.31510        0.24321
H          1.48887       -3.74011       -0.59096
S         -2.19311        0.68641       -0.10613
O         -3.33122        1.55787       -0.05583
O         -0.85359        1.24087       -0.28379
O         -2.18239       -0.16796        1.22961
O         -2.45003       -0.37966       -1.23857
H         -1.34025       -0.69946        1.28660
H         -1.67965       -1.01270       -1.28515
N          2.04599        1.67114       -0.32575
C          3.50711        1.55767       -0.14650
C          1.61706        2.80355       -1.17060
H          1.70667        0.76726       -0.69684
H          3.88088        2.45629        0.34727
H          3.71011        0.67776        0.46344
H          3.98744        1.44122       -1.11923
H          1.94672        3.73595       -0.70879
H          2.06533        2.70613       -2.16100
H          0.53082        2.78156       -1.24430
H          1.59684        1.71922        0.64092
N          0.90632        1.42209        2.18907
H          1.32882        1.62327        3.08915
H          0.76467        0.41241        2.11866
H         -0.01856        1.84281        2.17335
