37
2sa1dma1tma_70.log	Energy: -1072984.0893060
S         -2.35982       -1.50143        0.18013
O         -3.74103       -1.19378        0.46195
O         -1.31080       -1.16401        1.12419
O         -2.24345       -3.10180        0.03310
O         -2.00823       -1.01098       -1.25376
H         -3.06697       -3.43564       -0.34975
H         -1.09642       -0.55851       -1.30958
S          1.38141        0.16428       -0.53611
O          2.35675        1.24168       -0.78909
O          0.26229        0.12625       -1.49344
O          2.04280       -1.15454       -0.36290
O          0.77199        0.56015        0.89564
H          3.68852       -0.85931        0.02602
H         -0.03614        0.02062        1.05966
N          4.44224       -0.14885        0.20184
C          5.70628       -0.50423       -0.46893
C          4.53940        0.09172        1.65834
H          3.97829        0.66924       -0.24673
H          6.10323       -1.42016       -0.02893
H          5.50779       -0.66181       -1.52890
H          6.42629        0.30594       -0.34410
H          4.90134       -0.81328        2.14784
H          5.22632        0.91829        1.84494
H          3.54426        0.34119        2.02845
N         -2.23512        1.88683        0.09894
C         -3.47026        1.94415       -0.66366
H         -3.26027        1.74286       -1.71820
H         -4.16434        1.18055       -0.30386
H         -3.96139        2.93477       -0.58862
C         -2.48664        2.06962        1.51649
H         -3.17222        1.29519        1.87238
H         -1.54735        1.98144        2.07101
H         -2.92962        3.06019        1.74237
C         -1.27663        2.85997       -0.39565
H         -0.34146        2.77862        0.16360
H         -1.05658        2.65903       -1.44748
H         -1.65415        3.89814       -0.30504
