28
2sa1a1dma_29.log	Energy: -999026.6259998
S          1.26751       -1.59766       -0.04850
O          2.61202       -1.36106       -0.56827
O          0.78127       -0.52612        0.85753
O          0.27912       -1.96604       -1.08167
O          1.35343       -2.86280        0.96321
H          1.58643       -3.64992        0.45150
S         -2.39803        0.01796       -0.09164
O         -3.79162        0.30840        0.07453
O         -1.51828        1.02135       -0.69599
O         -1.80386       -0.34145        1.33300
O         -2.27163       -1.31899       -0.90892
H         -0.81570       -0.47636        1.25909
H         -1.31088       -1.57632       -1.03344
N          0.83330        2.25505        0.01402
C          0.49332        3.39615       -0.85954
C          0.63032        2.51887        1.45465
H          0.22351        1.46320       -0.24312
H          1.11615        4.25204       -0.59346
H          0.67535        3.11210       -1.89601
H         -0.56227        3.63842       -0.73393
H          1.24208        3.37214        1.75300
H         -0.42464        2.73100        1.63419
H          0.92709        1.62693        2.00539
H          1.84329        1.96305       -0.14294
N          3.49127        1.44620       -0.35484
H          3.98528        1.76012       -1.18456
H          3.35662        0.43352       -0.44227
H          4.10864        1.60005        0.43663
