26
2sa1eda_38.log	Energy: -998257.4683666
S         -0.83483       -1.65096       -0.04397
O         -1.56776       -1.22952        1.14979
O         -1.13176       -0.88391       -1.26538
O          0.62748       -1.79775        0.20589
O         -1.34791       -3.13199       -0.43963
H         -1.16485       -3.72784        0.30020
S          2.54372        0.66900        0.05285
O          3.80244        1.34956        0.11815
O          1.32964        1.41474       -0.25306
O          2.68187       -0.51664       -0.99652
O          2.32729       -0.09817        1.42759
H          1.90092       -1.11178       -0.89776
H          1.57758       -0.73057        1.31489
H         -2.73055        3.24361       -0.77914
H         -3.05549        1.87611       -1.87857
H         -4.35273        1.78296        0.34851
H         -3.37891        0.35018        0.00062
H         -2.99558        2.15735        2.16329
H         -2.26843        0.69710        1.85799
H         -0.59604        2.37574       -1.43711
H         -0.90816        1.90300        0.12391
C         -2.64745        2.16162       -0.90750
C         -3.32711        1.41404        0.24900
N         -1.21020        1.80640       -0.85892
N         -2.53678        1.59261        1.46194
H         -1.06423        0.79807       -1.10361
