39
2sa1eda1tma_84.log	Energy: -1107739.4821759
S          0.90174        0.49916       -0.78490
O         -0.02529        1.25348       -1.67474
O          1.08732        1.15965        0.53348
O          0.31868       -0.89541       -0.52398
O          2.22916        0.30583       -1.46990
H          3.19943       -0.09684       -0.46247
S         -2.45003       -2.13815        0.17621
O         -3.11103       -3.30891        0.67797
O         -3.27733       -0.97733       -0.15848
O         -1.33564       -1.68193        1.19787
O         -1.60940       -2.54492       -1.10634
H         -0.57846       -1.23731        0.67204
H         -0.85898       -1.89829       -1.22847
H         -2.95205        2.02085        1.49848
H         -1.31491        1.33455        1.31915
H         -1.19434        3.77639        1.85027
H         -0.49331        3.37780        0.28069
H         -3.05018        4.73043        0.73846
H         -1.87201        5.08532       -0.34007
H         -2.85724        0.70175       -0.46998
H         -2.92609        2.35306       -0.91048
C         -2.03363        2.04293        0.90523
C         -1.43475        3.44098        0.83369
N         -2.36932        1.61322       -0.47506
N         -2.35849        4.32475        0.11782
H         -1.47046        1.48992       -1.03035
N          3.91299       -0.38726        0.32592
C          3.19303       -1.31937        1.22643
H          2.34891       -0.78695        1.66471
H          2.81358       -2.15416        0.63655
H          3.87528       -1.67613        2.00301
C          5.06130       -1.03488       -0.33901
H          4.70705       -1.91830       -0.87133
H          5.49574       -0.33556       -1.05441
H          5.80889       -1.32246        0.40516
C          4.29081        0.86201        1.02438
H          4.79061        1.52292        0.31511
H          3.37284        1.33747        1.37267
H          4.95976        0.63067        1.85810
