31
2sa1ma1dma_16.log	Energy: -1023698.0708505
S         -0.31421        1.88365       -0.08037
O          0.03572        0.96620        1.04022
O         -0.52757        0.93835       -1.37265
O         -1.63768        2.48663        0.08591
O          0.79990        2.79894       -0.39670
H          2.24784        1.85244       -0.45590
S          0.80131       -2.00905       -0.19661
O          1.48357       -3.27427       -0.31350
O         -0.67765       -2.03753       -0.23502
O          1.20087       -1.42725        1.25678
O          1.30634       -0.94382       -1.15019
H          0.75488       -0.54958        1.32597
H          0.16213        0.21764       -1.39960
N          2.94055        1.06888       -0.36918
H          2.41627        0.19354       -0.63676
C          3.44967        0.98926        1.02272
H          4.00743        0.06280        1.15134
H          4.08131        1.85356        1.22634
H          2.58912        0.99629        1.68938
H          3.69043        1.20399       -1.04393
N         -2.68634       -0.24838        0.21386
C         -3.59410       -0.57808       -0.90596
C         -3.16866       -0.65129        1.55176
H         -1.78146       -0.74266        0.03719
H         -4.55768       -0.09122       -0.74927
H         -3.13532       -0.21723       -1.82598
H         -3.71705       -1.66048       -0.95266
H         -4.12322       -0.16427        1.75587
H         -3.28210       -1.73551        1.57395
H         -2.42522       -0.34176        2.28585
H         -2.48994        0.76806        0.20711
