33
2sa1ma1eda_27.log	Energy: -1058427.7456464
S          2.55758       -0.90104       -0.11605
O          2.24563       -2.11136       -0.90177
O          2.69611        0.31437       -0.94851
O          1.68209       -0.71696        1.05044
O          4.01830       -1.14961        0.54679
H          4.65346       -1.29437       -0.16773
S         -2.73993        0.02413        0.03241
O         -2.83521        1.46045        0.29000
O         -1.63252       -0.27193       -0.95003
O         -2.69378       -0.88735        1.16760
O         -4.10654       -0.39658       -0.74476
H         -4.34434        0.32308       -1.34419
N         -0.33356       -2.46158        0.11979
H         -0.84435       -1.70460       -0.38830
H          0.53419       -2.66377       -0.40628
C         -1.19840       -3.63474        0.36228
H         -0.64798       -4.37763        0.93927
H         -2.08012       -3.29841        0.90653
H         -1.49464       -4.05828       -0.59701
H         -0.00605       -2.01843        0.98413
H         -0.72911        2.39943        0.92895
H          0.69354        1.38536        1.28937
H          1.16261        3.81595        1.77357
H          2.21385        3.17670        0.50449
H         -0.12716        4.88698        0.06424
H          1.40913        5.10957       -0.45581
H         -0.44650        1.02162       -0.91250
H          0.19215        2.53712       -1.34551
C          0.31030        2.19256        0.66344
C          1.17829        3.44083        0.74231
N          0.31351        1.71396       -0.74610
N          0.70864        4.40673       -0.25355
H          1.22491        1.25634       -0.96212
