31
2sa1ma1dma_09.log	Energy: -1023694.3479247
S          2.66054       -0.32610       -0.08477
O          3.97299        0.12364        0.33802
O          2.56772       -1.74623       -0.48245
O          1.52277        0.06643        0.78796
O          2.28564        0.53561       -1.44360
H          3.00092        0.41249       -2.08183
S         -2.45461       -0.11242       -0.33103
O         -2.23520        1.19671       -0.98396
O         -2.15218       -1.26117       -1.20785
O         -1.84088       -0.21019        1.00049
O         -4.04665       -0.18997       -0.01760
H         -4.52376       -0.13169       -0.85667
N         -0.02615       -2.32560        0.24650
H         -0.05455       -1.49575        0.85257
H         -0.73060       -2.12164       -0.48757
C         -0.35679       -3.55599        0.99164
H         -0.36226       -4.40041        0.30313
H          0.39289       -3.71729        1.76581
H         -1.34168       -3.43859        1.44293
H          0.93319       -2.32894       -0.15753
N         -0.04244        2.24564        0.34054
C         -0.58412        2.70814        1.63715
C          0.75165        3.25483       -0.38978
H          0.55455        1.40366        0.51160
H         -1.22586        3.57449        1.46934
H         -1.16346        1.89053        2.06577
H          0.24423        2.97537        2.29502
H          0.11837        4.11147       -0.62581
H          1.59029        3.56786        0.23408
H          1.13304        2.79670       -1.30134
H         -0.83813        1.91710       -0.24820
