36
2sa1dma1eda_212.log	Energy: -1083067.5629656
S          3.16248       -0.04398        0.02296
O          4.55710        0.22958        0.25016
O          2.16474        0.38318        0.99766
O          2.70534        0.75295       -1.31357
O          2.98901       -1.52664       -0.35044
H          3.35999        0.60659       -2.01122
H          2.01378       -1.93841       -0.19674
S         -0.43032       -1.70198        0.10864
O          0.79349       -2.55442        0.08900
O         -1.67244       -2.41832        0.34371
O         -0.25506       -0.79962        1.48328
O         -0.44689       -0.72735       -0.98968
H          0.66452       -0.45552        1.49096
H         -1.11770        1.27832       -0.54427
N         -3.79075       -0.21303       -0.13901
C         -3.86778       -0.29587       -1.59911
C         -5.10164       -0.10767        0.49574
H         -3.31700       -1.05704        0.19058
H         -4.26903        0.64162       -1.99978
H         -2.86343       -0.45422       -1.99953
H         -4.51392       -1.11778       -1.93793
H         -5.57535        0.83612        0.20610
H         -5.77633       -0.92810        0.21140
H         -4.98516       -0.11521        1.58242
H          0.60355        2.66999        1.19639
H          0.08829        4.29554        0.74559
H         -1.80017        2.95030        1.77700
H         -2.16169        3.42259        0.10038
H         -1.15189        0.78420        1.00415
H         -2.60285        0.98558        0.21147
H          0.40451        3.71816       -1.46472
H          1.18757        2.36348       -0.93607
C         -0.03354        3.23340        0.50595
C         -1.49663        2.83100        0.73451
N          0.33495        2.90712       -0.86561
N         -1.62803        1.41576        0.34245
