28
2sa1a1dma_31.log	Energy: -999027.2304169
S          1.27083       -1.46262       -0.13320
O          2.65102       -1.01695       -0.04288
O          0.51046       -1.40505        1.14297
O          0.50951       -0.81035       -1.23333
O          1.38185       -3.02856       -0.51331
H          0.50858       -3.43822       -0.44007
S         -2.43764        0.11711        0.05883
O         -3.85138        0.34543        0.10088
O         -1.51132        1.24873        0.07888
O         -2.07104       -0.84341        1.25822
O         -2.11532       -0.74655       -1.22742
H         -1.09203       -1.04587        1.25969
H         -1.12296       -0.81055       -1.33516
N          1.11925        2.06591       -0.31704
C          2.13431        1.99135       -1.39046
C          0.55538        3.41517       -0.10093
H          0.34059        1.41956       -0.51181
H          2.93621        2.69614       -1.16379
H          2.52601        0.97549       -1.42702
H          1.67089        2.24917       -2.34362
H          1.35622        4.09040        0.20519
H          0.09987        3.77208       -1.02547
H         -0.20778        3.35076        0.67324
H          1.54334        1.72317        0.60027
N          2.17498        1.03964        2.05595
H          2.95899        0.46815        1.74744
H          1.46148        0.37413        2.34972
H          2.46158        1.57969        2.86542
