24
2sa1dma_43.log	Energy: -963491.9740878
S         -2.36814        0.57941       -0.14792
O         -1.31533        0.53460       -1.14851
O         -3.62135        1.22227       -0.41486
O         -2.67968       -0.87154        0.36555
O         -1.66018        1.27585        1.11278
H         -1.85617       -1.43220        0.38142
H         -2.33004        1.50266        1.77527
S          0.91542       -1.78052        0.02678
O          2.04018       -2.66538       -0.03499
O         -0.42345       -2.28462        0.28857
O          1.11894       -0.67434        1.16330
O          0.91750       -0.93004       -1.30072
H          1.98455       -0.24050        1.06375
H          0.10257       -0.36531       -1.33939
N          2.96725        2.57114       -0.22836
C          3.60533        1.27933       -0.11214
C          1.57954        2.57383        0.19758
H          3.49465        3.27255        0.27737
H          3.13333        0.57229       -0.80393
H          4.65973        1.34918       -0.38912
H          3.57466        0.85516        0.91768
H          0.98998        1.92652       -0.45914
H          1.42980        2.22389        1.23588
H          1.16743        3.58221        0.11528
