36
2sa1dma1eda_120.log	Energy: -1083081.2238405
S         -1.33518       -1.46570       -0.49957
O         -0.33030       -2.51593       -0.74204
O         -1.07287       -0.70305        0.73657
O         -1.26128       -0.41652       -1.70701
O         -2.74297       -1.93980       -0.58161
H         -3.57983       -0.76331        0.03484
S          1.13221        1.99918       -0.17774
O          1.88106        3.20063       -0.52043
O          1.60984        1.27472        1.01664
O         -0.37215        2.55313        0.22172
O          0.87745        1.06929       -1.30409
H         -0.29427        3.51562        0.23097
H         -0.45995        0.16630       -1.58659
N         -4.06074        0.07778        0.50159
C         -3.48769        1.33139       -0.05928
C         -3.88390       -0.04617        1.96993
H         -5.04939        0.01645        0.26266
H         -2.43191        1.38218        0.21221
H         -3.57474        1.29777       -1.14484
H         -4.03047        2.18665        0.34787
H         -2.81091       -0.07946        2.16115
H         -4.34691        0.80822        2.46675
H         -4.34520       -0.97637        2.30214
H          3.12044       -2.27902       -0.93680
H          2.57522       -0.61722       -1.27763
H          4.99706       -0.64485       -0.60014
H          3.99331        0.25473        0.54601
H          5.12390       -2.40775        0.98160
H          5.10981       -1.11245        1.98129
H          1.07254       -1.94227        0.16228
H          2.30344       -1.88757        1.34175
C          2.95116       -1.28898       -0.50441
C          4.21043       -0.74476        0.15825
N          1.89440       -1.41996        0.52800
N          4.57276       -1.61150        1.28292
H          1.58011       -0.46618        0.81887
