39
2sa1eda1tma_18.log	Energy: -1107751.4179582
S         -0.52036        1.91924       -0.58108
O          0.74419        1.46377       -1.21741
O         -1.69632        1.20657       -1.12852
O         -0.46635        2.02638        0.86996
O         -0.70059        3.46456       -1.06771
H         -0.79770        3.46435       -2.02954
S          0.81140       -2.01297       -0.54379
O          2.15258       -2.57786       -0.41356
O         -0.28587       -2.99047       -0.66829
O          0.50669       -0.98817        0.50427
O          0.77788       -1.17612       -1.92553
H          1.74903        0.14388        0.70031
H          0.75263       -0.20847       -1.72445
H         -2.71666       -1.93665        1.70840
H         -1.58435       -0.57824        1.50644
H         -3.78374        0.21042        2.45510
H         -3.44025        0.91973        0.87340
H         -5.38255       -1.20167        1.41887
H         -5.56147        0.15622        0.52522
H         -1.73606       -2.05486       -0.45395
H         -3.36118       -1.52659       -0.61294
C         -2.54044       -0.99240        1.18574
C         -3.68961       -0.01393        1.38518
N         -2.42748       -1.29392       -0.26369
N         -4.90544       -0.57026        0.78445
H         -2.10082       -0.42993       -0.74641
N          2.70890        0.49103        0.95760
C          2.59667        1.86500        1.50128
H          2.22628        2.51986        0.71477
H          1.87768        1.86374        2.31934
H          3.58148        2.18806        1.84781
C          3.19977       -0.47897        1.96937
H          2.53722       -0.44403        2.83437
H          3.16942       -1.47451        1.52413
H          4.21794       -0.20910        2.25887
C          3.53826        0.44862       -0.27591
H          3.53180       -0.57395       -0.65710
H          3.09220        1.12246       -1.00615
H          4.55496        0.76188       -0.02669
