36
2sa1dma1eda_70.log	Energy: -1083088.8849593
S         -0.46090       -2.01193        0.44509
O         -0.91544       -0.98080        1.60984
O         -0.19818       -1.13102       -0.74407
O          0.73481       -2.71790        0.88512
O         -1.69196       -2.79538        0.24618
H         -2.70040       -1.37434       -0.23589
S         -0.18190        2.21730        0.18381
O         -1.54648        1.86031       -0.21701
O          0.77946        2.41901       -0.91570
O         -0.40239        3.67599        0.86363
O          0.38404        1.35107        1.24796
H          0.46401        4.03158        1.10228
H         -0.37433       -0.15355        1.57608
N         -3.03183       -0.43039       -0.52716
C         -4.21019       -0.03799        0.27132
C         -3.23131       -0.41925       -1.99105
H         -2.26379        0.23763       -0.31627
H         -5.04135       -0.70739        0.04442
H         -3.94616       -0.11466        1.32582
H         -4.47341        0.99266        0.03093
H         -4.02807       -1.11640       -2.25451
H         -3.48896        0.59282       -2.30537
H         -2.29276       -0.72593       -2.45200
H          3.07337       -1.79286       -1.11485
H          3.14677       -0.53681       -2.36312
H          5.38785       -0.90222       -1.28792
H          4.79872        0.74156       -1.01168
H          4.67976       -1.41849        0.97381
H          5.39145        0.05411        1.11333
H          1.25079       -0.47262       -0.65106
H          2.44368        0.04545        0.42614
C          3.24910       -0.72849       -1.29374
C          4.62000       -0.31155       -0.76942
N          2.19347        0.00555       -0.56881
N          4.62550       -0.44792        0.68266
H          2.03131        0.97624       -0.87954
