24
2sa1dma_44.log	Energy: -963492.3667455
S          1.49076       -1.53932        0.10595
O          0.30593       -2.28569        0.49943
O          2.78687       -2.14651        0.12608
O          1.28249       -0.92391       -1.33173
O          1.44034       -0.25265        1.05619
H          0.37350       -0.53692       -1.39430
H          2.18407        0.34356        0.86359
S         -2.25258       -0.00566       -0.18390
O         -1.15383        0.17490       -1.11999
O         -3.60634        0.27999       -0.55741
O         -2.21572       -1.45922        0.40346
O         -1.82902        0.91518        1.06005
H         -1.28001       -1.79333        0.49009
H         -2.59165        1.04470        1.64379
N          0.93770        2.70172       -0.32726
C          1.06482        3.16405        1.03783
C          2.20109        2.41401       -0.96375
H          0.29695        1.91996       -0.39215
H          1.58104        4.13010        1.05294
H          0.07441        3.30201        1.47668
H          1.63515        2.47759        1.69505
H          2.77135        3.33981       -1.09457
H          2.86044        1.72489       -0.38816
H          2.03874        1.97017       -1.94807
