26
2sa1eda_07.log	Energy: -998261.4046268
S          2.18217        0.47551        0.01254
O          2.35232       -0.92423       -0.42821
O          2.05637        1.47997       -1.03563
O          1.10310        0.58677        1.04302
O          3.55526        0.86545        0.76161
H          3.80888        0.13590        1.34395
S         -0.96717       -1.86961       -0.13992
O         -1.03546       -0.82004       -1.16348
O         -2.04034       -2.81334       -0.03718
O          0.37948       -2.65118       -0.31665
O         -0.82338       -1.15624        1.26927
H          1.15350       -2.01971       -0.43312
H         -0.05271       -0.50936        1.25753
H         -1.90887        3.57625       -0.57220
H         -2.34121        2.47096       -1.90152
H         -3.93560        2.29179        0.07928
H         -3.12936        0.77518       -0.31747
H         -2.74878        2.34373        2.06849
H         -2.39792        0.75599        1.78940
H          0.09661        2.32775       -1.22194
H         -0.43489        1.83100        0.26535
C         -2.01462        2.52806       -0.86146
C         -2.96652        1.78124        0.08036
N         -0.68731        1.88589       -0.73561
N         -2.35757        1.69108        1.40255
H         -0.72754        0.89428       -1.04357
