28
2sa1a1dma_23.log	Energy: -999033.5390143
S         -1.97900       -0.70817       -0.32210
O         -3.38546       -0.92204       -0.54806
O         -1.20725       -0.08613       -1.42682
O         -1.67485        0.04836        0.95608
O         -1.33007       -2.16541       -0.09323
H         -0.63426       -0.71496        1.98580
H         -0.35664       -2.11700       -0.24856
S          2.09666       -0.51407       -0.26993
O          1.35526       -1.77324        0.10310
O          3.50899       -0.67885       -0.50148
O          1.46057       -0.05028       -1.66369
O          1.73103        0.54360        0.72549
H          0.47281       -0.13880       -1.63252
H          0.64725        1.72324        0.25227
N         -0.22392        2.30857        0.21817
C         -0.39073        2.94970       -1.10445
C         -0.19618        3.25198        1.35341
H         -0.96189        1.59397        0.38411
H          0.47573        3.58102       -1.30489
H         -0.47464        2.16775       -1.85651
H         -1.30165        3.55042       -1.09820
H          0.61934        3.96254        1.21274
H         -1.14766        3.78258        1.40928
H         -0.03360        2.68997        2.27296
N          0.14521       -1.27047        2.43592
H         -0.23262       -2.06385        2.94688
H          0.70713       -0.67773        3.04115
H          0.74476       -1.58820        1.62447
