36
2sa1dma1eda_143.log	Energy: -1083077.1560417
S          1.52442        1.79255       -0.31120
O          0.40652        2.28574        0.47556
O          2.63446        1.15551        0.42223
O          1.07821        0.94028       -1.46348
O          2.16098        3.12049       -0.97664
H          3.03697        2.90009       -1.32242
S          1.46330       -2.03708        0.15546
O          1.52202       -3.46800        0.24368
O          0.28708       -1.32002        0.63947
O          2.73973       -1.45511        0.87451
O          1.66864       -1.63959       -1.36646
H          2.73842       -0.45949        0.80268
H          1.50405       -0.66029       -1.47971
N         -1.66911        0.54121        1.83523
C         -2.22065       -0.63117        2.50921
C         -2.18678        1.80565        2.35288
H         -0.65464        0.53303        1.91798
H         -3.29977       -0.68405        2.32476
H         -1.74426       -1.52886        2.11031
H         -2.06734       -0.60225        3.59743
H         -3.26030        1.87209        2.14447
H         -2.04325        1.90618        3.43806
H         -1.67610        2.63097        1.85318
H         -1.88070       -0.98499       -2.42314
H         -1.60855       -1.64357       -0.79807
H         -3.99362       -1.95594       -1.50778
H         -3.86883       -0.90204       -0.09616
H         -4.38326       -0.00645       -2.83596
H         -5.22332        0.33042       -1.47507
H         -0.69986        0.63838       -1.17291
H         -2.29644        1.15837       -1.27761
C         -2.14102       -0.87954       -1.36570
C         -3.64861       -0.97118       -1.16668
N         -1.67545        0.44172       -0.89308
N         -4.29406        0.15713       -1.83844
H         -1.71114        0.49348        0.19651
