30
2sa1a1eda_75.log	Energy: -1033764.9836128
S         -2.43429       -0.19587       -0.16309
O         -1.97935        1.15371       -0.55022
O         -2.04109       -1.24699       -1.11781
O         -2.14550       -0.51328        1.24797
O         -4.05229       -0.15349       -0.19423
H         -4.33610       -0.00494       -1.10702
S          1.70293        1.43428       -0.36854
O          1.60255        0.51815       -1.52304
O          1.45797        0.66443        0.90863
O          2.85049        2.30929       -0.31370
O          0.41994        2.42341       -0.47415
H         -0.37203        1.90758       -0.74620
H          0.36017       -1.53329        0.95292
H         -0.13316       -3.17044        0.49588
H          1.97267       -3.12207        1.85414
H          2.19940       -3.89197        0.28214
H          2.91053       -1.07950        0.78084
H          3.96795       -2.32838        0.54794
H         -0.36062       -1.73772       -1.30994
H          1.17561       -1.08080       -1.19106
C          0.63859       -2.40931        0.36633
C          2.01146       -2.92715        0.77051
N          0.62040       -1.96400       -1.05454
N          3.03565       -1.99077        0.34544
H          0.99882       -2.67221       -1.68079
N         -0.64654        1.58268        2.18628
H         -1.33677        0.81822        2.00861
H         -0.58972        1.82776        3.16993
H          0.28989        1.24242        1.79427
H         -0.91371        2.39228        1.62555
