33
2sa1ma1eda_192.log	Energy: -1058408.2023911
S         -2.87269        0.67337       -0.16406
O         -4.08614        1.35061       -0.53544
O         -1.70987        0.70110       -1.03606
O         -2.31893        1.32460        1.20906
O         -3.22512       -0.78051        0.24458
H         -3.05613        1.42508        1.82841
H         -2.38808       -1.38932        0.33081
S          0.16635       -1.95270        0.11816
O         -1.24464       -2.30424        0.40384
O          1.08745       -3.07151        0.03407
O          0.17975       -1.31519       -1.37215
O          0.64282       -0.85540        1.01022
H         -0.48383       -0.59384       -1.40273
H          2.28092       -0.70981        0.84891
N          3.30405       -0.58775        0.61390
H          3.49261        0.46284        0.58163
C          3.60352       -1.21760       -0.69574
H          4.65252       -1.05517       -0.94507
H          3.36623       -2.27946       -0.64712
H          2.96304       -0.75770       -1.44842
H          3.84800       -1.01322        1.36132
H          2.56931        3.75964       -0.64619
H          3.17241        2.39734       -1.60633
H          0.65785        2.40476       -1.36295
H          1.40677        0.93354       -0.77898
H          0.05267        2.89862        0.79036
H          0.29150        1.30800        1.05608
H          4.38970        2.69865        0.50112
H          2.97796        2.42870        1.30726
C          2.68340        2.66680       -0.66431
C          1.30702        2.00403       -0.57507
N          3.50743        2.19803        0.46415
N          0.75164        2.16624        0.76652
