26
2sa1eda_98.log	Energy: -998250.7668917
S          0.61808        1.40172        0.18723
O          0.18398        0.24796        1.09618
O         -0.28950        2.52320        0.27987
O          2.05455        1.62816        0.32033
O          0.50489        0.73890       -1.29200
H         -0.39221        0.36055       -1.40559
S         -2.84347       -0.64795       -0.13453
O         -3.92811       -1.58750       -0.03599
O         -1.79290       -0.82517       -1.12502
O         -3.42403        0.81182       -0.46549
O         -2.21992       -0.48011        1.28663
H         -4.15127        1.02098        0.13850
H         -1.26462       -0.09370        1.23521
H          2.94498       -0.31854        1.46877
H          3.37808       -2.03245        1.69908
H          5.10040       -0.54127        0.43708
H          4.66619       -2.04654       -0.38568
H          3.45717        0.56662       -1.01121
H          4.34363       -0.41093       -2.02068
H          1.08562       -1.08108        0.62435
H          2.05674       -1.24899       -0.74313
C          3.15136       -1.26194        0.96184
C          4.28035       -1.07365       -0.06124
N          1.90088       -1.61494        0.22406
N          3.72342       -0.39459       -1.22207
H          1.70976       -2.61281        0.18645
