31
2sa1ma1dma_68.log	Energy: -1023675.6789783
S         -1.65399       -0.45095       -0.74271
O         -2.97341       -0.77940       -1.27544
O         -0.52007       -0.61919       -1.66636
O         -1.63802        0.90333       -0.09566
O         -1.45234       -1.49911        0.45852
H         -2.99004        1.17025        0.47831
H         -0.52781       -1.43336        0.79949
S          2.24712       -0.71429        0.45901
O          3.58951       -1.18443        0.71810
O          1.13848       -1.25911        1.23320
O          2.17865        0.83991        0.60543
O          1.98979       -0.96192       -1.08016
H          2.99206        1.25914        0.08081
H          1.02288       -0.80682       -1.31378
N          4.25221        1.68693       -0.68456
H          4.35221        0.99811       -1.42650
C          5.41147        1.63675        0.22148
H          6.36208        1.81981       -0.29033
H          5.28057        2.38581        1.00517
H          5.43599        0.65139        0.69004
H          4.17015        2.59561       -1.13034
N         -4.01456        1.27635        0.84342
C         -4.38785        0.01146        1.52564
C         -4.87834        1.60661       -0.31558
H         -4.01741        2.04355        1.51368
H         -4.34869       -0.78664        0.78398
H         -3.65529       -0.19352        2.30607
H         -5.38938        0.10260        1.95004
H         -4.75799        0.80718       -1.04777
H         -5.91796        1.69112        0.00675
H         -4.53745        2.54724       -0.74847
