30
2sa1a1eda_165.log	Energy: -1033751.9784916
S         -2.70428        0.58673       -0.50515
O         -3.98793        1.02456       -1.00595
O         -1.48430        1.16213       -1.05568
O         -2.63164        0.81115        1.04800
O         -2.67591       -0.97787       -0.66854
H         -3.53056        0.52043        1.45244
H         -1.74843       -1.35194       -0.51587
S          0.96090       -1.20713       -0.19562
O          2.18030       -1.94563       -0.49195
O         -0.30392       -1.94508       -0.36373
O          1.01175       -0.51405        1.13103
O          0.95762       -0.01666       -1.28832
H          2.35946        0.06054        1.45059
H          0.09951        0.46677       -1.23603
H          5.36081        0.11248        1.18398
H          4.20132       -1.11302        0.57008
H          5.03218        0.45762       -1.24326
H          3.28113        0.44876       -1.04143
H          5.08896        2.60182       -0.28181
H          3.57161        2.67069       -0.89493
H          3.55814        0.22979        2.65515
H          3.33178        1.48222        1.56028
C          4.37560       -0.04954        0.73696
C          4.21992        0.73840       -0.56385
N          3.34728        0.45889        1.68731
N          4.17271        2.16957       -0.25230
N         -5.04277        0.03374        1.79763
H         -5.49064        0.43735        2.61333
H         -5.10545       -0.97729        1.86498
H         -5.55720        0.32336        0.96889
