26
2sa1eda_48.log	Energy: -998255.2014886
S          2.12149       -0.86423       -0.02923
O          2.10709       -0.68331       -1.47764
O          0.84770       -1.33570        0.56960
O          3.11931       -2.09890        0.28664
O          2.65325        0.30016        0.72033
H          3.90104       -2.00071       -0.27391
H          1.36993        1.22360        1.27790
S         -2.41339       -0.43968        0.01454
O         -1.87524        0.25607        1.17211
O         -3.06934        0.29544       -1.04348
O         -1.36395       -1.40092       -0.60046
O         -3.49145       -1.45365        0.64236
H         -0.44156       -1.38015       -0.13037
H         -4.07005       -1.76942       -0.06643
H         -0.52405        3.42203        0.60397
H          1.21650        3.67226        0.88415
H          0.68444        3.41971       -1.55924
H          1.79520        2.17861       -0.97129
H         -0.98152        1.73684       -1.72517
H          0.35005        0.76172       -1.88513
H          0.35561        2.00569        2.38402
H         -0.29870        1.13085        1.13432
C          0.46606        2.96629        0.52088
C          0.76172        2.53219       -0.91656
N          0.47752        1.76673        1.40251
N         -0.11640        1.43856       -1.29102
