37
2sa1dma1tma_63.log	Energy: -1072991.1709261
S         -0.04950       -0.69617       -0.73947
O          0.40412        0.66870       -0.32487
O          0.02422       -1.66766        0.35405
O         -1.38000       -0.63290       -1.38287
O          0.91427       -1.15701       -1.92047
H          1.84755       -1.04740       -1.62984
S          3.78861        0.22183        0.23105
O          5.07569        0.85983        0.32059
O          3.41820       -0.55828       -0.93543
O          3.64928       -0.81806        1.45426
O          2.69604        1.29033        0.53719
H          4.09567       -0.44648        2.22842
H          1.76626        0.99974        0.20849
N         -2.40613        2.04466       -0.01468
C         -2.47628        3.21965        0.84188
C         -2.95001        2.29123       -1.34413
H         -1.43344        1.75859       -0.11416
H         -3.52513        3.46376        1.04968
H         -1.98159        3.01488        1.79607
H         -2.00710        4.11316        0.39791
H         -4.03193        2.46410       -1.27659
H         -2.50406        3.16970       -1.83827
H         -2.76955        1.41531       -1.97175
N         -3.17873       -1.10195        0.56255
C         -4.50121       -0.50007        0.27518
H         -4.38728        0.58203        0.34873
H         -4.80060       -0.77452       -0.73712
H         -5.23155       -0.87211        0.99748
C         -3.17455       -2.57954        0.41987
H         -3.50846       -2.83365       -0.58632
H         -2.15095       -2.92833        0.56189
H         -3.84495       -3.01417        1.16466
C         -2.65885       -0.67723        1.88863
H         -1.65889       -1.09484        2.01065
H         -2.61220        0.41168        1.88801
H         -3.33512       -1.04316        2.66493
H         -2.50770       -0.75159       -0.17136
