34
2sa1ma1tma_62.log	Energy: -1048321.1196170
S         -2.07702       -1.45194        0.19574
O         -3.42711       -1.08891        0.55167
O         -0.96797       -1.17760        1.09049
O         -2.03886       -3.05203        0.01659
O         -1.77479       -0.95120       -1.24666
H         -2.89352       -3.34373       -0.33096
H         -0.85460       -0.52589       -1.33739
S          1.68626        0.09067       -0.67159
O          2.70363        1.12048       -0.93672
O          0.52256        0.12312       -1.57136
O          2.29027       -1.26661       -0.55703
O          1.16498        0.47188        0.80090
H          3.86340       -1.04411       -0.15233
H          0.34265       -0.03648        0.99204
N          4.67174       -0.40877        0.11993
H          5.56316       -0.76187       -0.21839
C          4.64860       -0.17176        1.58459
H          5.40474        0.56542        1.85219
H          3.65553        0.19933        1.84030
H          4.83387       -1.11261        2.10132
H          4.39039        0.44883       -0.38945
N         -1.81638        1.93717        0.17114
C         -2.03019        2.10022        1.59741
H         -2.73572        1.34415        1.95357
H         -1.08300        1.96681        2.12910
H         -2.43119        3.10141        1.85260
C         -0.83422        2.88540       -0.32566
H          0.10950        2.75910        0.21060
H         -0.64414        2.69799       -1.38574
H         -1.17067        3.93453       -0.20616
C         -3.06505        2.05539       -0.56214
H         -2.88498        1.86941       -1.62495
H         -3.77843        1.30978       -0.20261
H         -3.51890        3.06079       -0.45590
