30
2sa1a1eda_194.log	Energy: -1033744.3771807
S          0.28636       -1.06135        0.38990
O          1.48288       -1.87688        0.53853
O         -0.85065       -1.43274        1.25832
O          0.54939        0.40137        0.40035
O         -0.20502       -1.38122       -1.13678
H          1.23146        0.88745       -1.24387
H         -1.12646       -1.05083       -1.23422
S         -3.40274        0.43096       -0.12248
O         -4.82055        0.65631       -0.20622
O         -2.68907       -0.22678       -1.20493
O         -2.65926        1.85588        0.00541
O         -3.10033       -0.26277        1.23679
H         -3.15736        2.41449        0.61943
H         -2.17023       -0.69888        1.25989
H          5.46426       -0.03541        0.49810
H          5.36962        0.81923       -1.05940
H          4.84052        2.29812        0.81366
H          3.45163        2.13833       -0.25607
H          3.24399        1.84311        2.34484
H          2.37621        0.83962        1.38812
H          4.28682       -1.30677       -1.19965
H          3.27050       -0.96287        0.02252
C          4.78159        0.43779       -0.21691
C          4.07103        1.59472        0.48018
N          3.80729       -0.53649       -0.74142
N          3.32107        1.12678        1.63445
N          1.75807        0.51958       -2.05758
H          1.92661        1.22846       -2.76432
H          1.17195       -0.23477       -2.42279
H          2.70271        0.07747       -1.60459
