36
2sa1dma1eda_142.log	Energy: -1083078.0299804
S         -1.23537       -0.08034       -0.52593
O         -1.43039        0.77106        0.67718
O          0.06125        0.32767       -1.20940
O         -1.16874       -1.53233       -0.16035
O         -2.37938        0.12184       -1.48934
H         -3.60410        0.02730       -0.74827
S          2.20550       -1.97941        0.20966
O          3.37923       -2.80726        0.18963
O          2.06663       -0.99381        1.28896
O          2.14310       -1.20087       -1.17018
O          0.93959       -2.89287        0.19085
H          1.28681       -0.66512       -1.25442
H          0.07818       -2.34038        0.09790
N         -4.48786       -0.00242       -0.06873
C         -4.62255        1.34348        0.53354
C         -4.26062       -1.07486        0.93080
H         -5.30711       -0.22269       -0.63188
H         -3.66844        1.57683        1.00957
H         -4.81600        2.06675       -0.25909
H         -5.43695        1.35078        1.26129
H         -3.35653       -0.82581        1.48742
H         -5.12047       -1.14658        1.60050
H         -4.09576       -2.01599        0.40700
H          3.46869        2.11643        0.90786
H          3.02775        1.29699       -0.60109
H          3.42743        3.73479       -1.01464
H          1.74609        3.29795       -1.33392
H          2.71288        4.75483        1.01126
H          1.45531        5.10592        0.02573
H          1.57723        0.73295        1.25977
H          1.03558        2.35662        1.28813
C          2.71501        2.05622        0.11831
C          2.49200        3.41086       -0.54061
N          1.44289        1.60746        0.72499
N          1.96918        4.34660        0.45524
H          0.76455        1.33115       -0.02439
