28
2sa1a1dma_13.log	Energy: -999031.1488182
S          2.66982       -0.40165       -0.13216
O          2.46496       -1.67827       -0.82654
O          2.87575        0.76696       -0.98417
O          1.63584       -0.17013        0.92675
O          4.01217       -0.57193        0.77348
H          4.76584       -0.66196        0.17437
S         -2.68952       -0.40633       -0.05113
O         -2.57245       -1.76500        0.53186
O         -3.10209        0.62384        0.89887
O         -1.49516       -0.05936       -0.85433
O         -3.85115       -0.50480       -1.18206
H         -4.69906       -0.62183       -0.73231
N          0.03435        1.97221        0.11657
C          0.58249        2.89267       -0.90415
C         -0.63887        2.64361        1.25054
H         -0.63260        1.30168       -0.33109
H          1.27643        3.58487       -0.42560
H          1.12118        2.30338       -1.64459
H         -0.24222        3.44081       -1.36176
H          0.08863        3.25675        1.78444
H         -1.44964        3.26332        0.86698
H         -1.06281        1.88483        1.90690
H          0.78111        1.34571        0.47561
N          0.05872       -2.40041        0.46163
H         -0.98311       -2.25113        0.45132
H          0.44881       -2.46356       -0.48249
H          0.53688       -1.57006        0.87135
H          0.30928       -3.23587        0.98297
