36
2sa1dma1eda_228.log	Energy: -1083061.8293112
S          1.70868       -0.19704        0.39452
O          2.14791        0.31721       -0.91682
O          0.70440       -1.28747        0.28503
O          2.86528       -0.63389        1.23206
O          1.06131        0.98387        1.19562
H          4.15409       -0.35517        0.55542
H          0.25649        1.40026        0.64510
S         -2.76030       -1.42506        0.01671
O         -3.91754       -0.97500       -0.72963
O         -2.60981       -1.12091        1.41557
O         -2.69478       -3.03200       -0.08393
O         -1.50675       -0.96913       -0.80371
H         -2.99827       -3.29774       -0.96361
H         -0.59426       -1.12670       -0.31897
N          5.06359       -0.12001       -0.00304
C          5.08552        1.34498       -0.23141
C          5.05182       -0.91848       -1.25271
H          5.85378       -0.39365        0.57885
H          4.18012        1.59951       -0.78366
H          5.07331        1.84852        0.73538
H          5.97978        1.62092       -0.79355
H          4.14156       -0.65870       -1.79469
H          5.94095       -0.69355       -1.84493
H          5.02683       -1.97664       -0.99157
H         -2.90126        3.94147       -0.41130
H         -3.99867        3.19492        0.73813
H         -1.67817        2.98823        1.50802
H         -2.36440        1.39222        1.21484
H         -1.18639        1.25547       -0.81453
H         -0.60231        2.78366       -0.68139
H         -3.20092        2.09428       -1.87162
H         -4.13480        1.29139       -0.79250
C         -3.22458        2.97325       -0.00547
C         -2.04554        2.31675        0.72391
N         -3.83025        2.21518       -1.08645
N         -0.90835        1.97402       -0.14659
