39
2sa1eda1tma_37.log	Energy: -1107747.4151255
S          0.12237        2.20794       -0.41853
O         -1.07416        2.51023       -1.19938
O         -0.16953        1.84894        0.98994
O          1.08875        1.29254       -1.05507
O          1.00796        3.58079       -0.33444
H          0.41633        4.29932       -0.07450
S          0.11383       -2.10569       -0.59143
O          0.67313       -3.44214       -0.65280
O         -1.34761       -1.99234       -0.81820
O          0.47371       -1.32607        0.63712
O          0.84201       -1.31060       -1.79559
H          1.88696       -0.49544        0.61130
H          0.74674       -0.34036       -1.65392
H         -3.60627        1.55126        0.61950
H         -2.96835        0.89816       -0.89285
H         -5.33947        0.13215       -0.52888
H         -4.21294       -1.23013       -0.51879
H         -5.51298       -0.06419        1.82542
H         -5.34188       -1.63844        1.41294
H         -1.45619        0.62031        1.03328
H         -2.63057       -0.41110        1.70785
C         -3.34439        0.62873        0.09460
C         -4.52120       -0.33632        0.03254
N         -2.24577       -0.02862        0.84027
N         -4.88586       -0.73458        1.39444
H         -1.87021       -0.82757        0.27079
N          2.91351       -0.32754        0.80204
C          3.63775       -0.37267       -0.49373
H          3.42045       -1.32319       -0.98128
H          3.27332        0.44280       -1.11653
H          4.70880       -0.27042       -0.30274
C          3.06448        0.98348        1.47739
H          2.79805        1.77000        0.77379
H          2.38210        1.02021        2.32632
H          4.09987        1.09632        1.80819
C          3.30311       -1.45868        1.67982
H          2.72946       -1.39789        2.60444
H          3.05851       -2.39172        1.17151
H          4.37339       -1.39887        1.88998
