25
2sa1a1ma_17.log	Energy: -974370.1049119
S          2.54613       -0.14858        0.02203
O          2.63306       -1.37569       -0.80262
O          2.60037        1.09405       -0.77337
O          1.43891       -0.18431        0.98750
O          3.87000       -0.14394        0.95809
H          4.64836       -0.09902        0.38607
S         -2.46261       -0.31480        0.16403
O         -2.30703       -1.57696        0.89103
O         -2.47946        0.90184        0.97589
O         -1.50933       -0.21061       -0.98963
O         -3.88903       -0.39127       -0.61438
H         -4.58620       -0.49157        0.04824
N          0.02417        1.96767       -0.15778
H         -0.53595        1.23748       -0.64397
H          0.10590        1.61292        0.79936
C         -0.62980        3.29070       -0.22204
H         -0.03003        4.01741        0.32537
H         -0.71428        3.59217       -1.26567
H         -1.62005        3.19911        0.22273
H          0.98676        1.93594       -0.54160
N          0.11004       -2.37487       -0.45276
H          1.12059       -2.17345       -0.63853
H         -0.47651       -1.61630       -0.86834
H         -0.18154       -3.28148       -0.80607
H         -0.07401       -2.31787        0.55136
