30
2sa1a1eda_103.log	Energy: -1033760.4167056
S         -2.80598       -0.43862       -0.08002
O         -2.64928       -1.82481       -0.56538
O         -1.89528       -0.12725        1.03641
O         -2.79876        0.60098       -1.12605
O         -4.32540       -0.34443        0.48543
H         -4.50262       -1.13061        1.01858
S          2.57671       -0.76964       -0.19297
O          2.12189       -2.02606       -0.84025
O          2.90200        0.30222       -1.13142
O          1.69055       -0.38288        0.92311
O          3.96594       -1.14501        0.57789
H          4.65215       -1.26337       -0.09249
H          0.46277        1.21998       -0.97376
H          0.27672        2.73038       -1.88346
H          2.32743        2.63379       -0.36546
H          1.26335        4.01620       -0.01479
H          1.39414        1.51258        1.50152
H          1.57367        3.05188        2.06649
H         -1.76594        1.80669       -0.63800
H         -0.89493        2.25011        0.75443
C          0.29151        2.29288       -0.88480
C          1.34500        2.92287        0.02386
N         -1.04430        2.46456       -0.24784
N          1.08259        2.47934        1.39116
H         -1.37959        3.42357       -0.31727
N         -0.17813       -2.48692        0.50754
H         -0.07951       -1.61790        1.04880
H         -0.16620       -3.28817        1.13131
H         -1.08190       -2.42696       -0.00505
H          0.65540       -2.50153       -0.13148
