33
2sa1ma1eda_163.log	Energy: -1058410.5831181
S         -0.45464        1.85482        0.52561
O          0.90583        2.53798        0.88079
O         -1.50426        2.82451        0.64704
O         -0.32169        1.48871       -1.01212
O         -0.56656        0.59563        1.27099
H          0.38635        0.78528       -1.14298
H         -0.16658       -1.00930        0.75865
S          2.78919       -0.28825       -0.46326
O          3.95144       -0.48120       -1.30071
O          1.46272       -0.40429       -1.12051
O          2.72091       -1.62477        0.52673
O          2.84811        0.86043        0.46269
H          3.61652       -1.82180        0.83172
H          1.67811        1.89642        0.77533
N         -3.23788        0.25058       -1.59544
H         -2.34656        0.73766       -1.65621
C         -4.09133        0.90242       -0.59530
H         -4.31429        1.95346       -0.81561
H         -5.03418        0.35439       -0.50961
H         -3.59285        0.87393        0.37658
H         -3.66362        0.32140       -2.51438
H         -0.93228       -3.83756        1.19419
H         -1.03700       -2.50478        2.37560
H         -3.26806       -2.99966        1.19610
H         -2.69769       -1.34075        0.99434
H         -2.88678       -3.33212       -1.07052
H         -2.81399       -1.66060       -1.17277
H          0.86249       -2.30735        0.67087
H         -0.38128       -2.12939       -0.45065
C         -1.12789       -2.76994        1.32096
C         -2.49102       -2.38337        0.73067
N         -0.11335       -2.02408        0.54192
N         -2.43045       -2.50008       -0.72011
