24
2sa1dma_25.log	Energy: -963516.7841367
S          2.51733        0.18519        0.18886
O          3.91243        0.13762        0.53323
O          1.49893        0.40036        1.20451
O          2.28336        1.42405       -0.83154
O          2.17190       -1.05948       -0.67078
H          3.04518        1.47982       -1.42635
H          1.14751       -1.11956       -0.83640
S         -1.37277       -1.41995       -0.09647
O         -0.29385       -0.98092       -1.03777
O         -1.36644       -2.82410        0.23517
O         -1.09253       -0.54908        1.25695
O         -2.67666       -0.85253       -0.52385
H         -0.12953       -0.42657        1.38374
H         -2.56043        0.69199       -0.52055
N         -2.46019        1.76036       -0.42634
C         -1.05540        2.15043       -0.72108
C         -2.91228        2.13765        0.93557
H         -3.07998        2.16948       -1.12438
H         -0.41079        1.73958        0.05506
H         -0.76504        1.72056       -1.67846
H         -0.97647        3.23869       -0.73952
H         -2.30911        1.57392        1.64691
H         -2.78449        3.21126        1.08250
H         -3.95965        1.85862        1.04937
