33
2sa1ma1eda_170.log	Energy: -1058411.1637714
S         -2.21949       -0.53795        0.65737
O         -3.46524       -0.90615        1.35633
O         -0.97771       -0.81808        1.38823
O         -2.20838       -1.08542       -0.73464
O         -2.35172        1.05229        0.50356
H         -3.74818       -1.14268       -1.17079
H         -1.48884        1.45422        0.20129
S          1.27001        1.47163       -0.05903
O          2.43193        2.34939        0.07813
O         -0.03977        2.12673       -0.19128
O          1.49089        0.44056       -1.12629
O          1.25147        0.65027        1.32639
H          3.00279        0.25036       -1.16599
H          0.43259        0.09071        1.37482
N         -4.79608       -0.99480       -0.99649
H         -5.36366       -1.69986       -1.45871
C         -5.17570        0.39443       -1.35144
H         -6.21581        0.57561       -1.08133
H         -4.51806        1.06378       -0.79513
H         -5.02986        0.54259       -2.42089
H         -4.80350       -1.12198        0.03267
H          5.29488       -0.46205        0.62843
H          3.69786        0.19201        1.09790
H          3.74665       -2.31187        1.32055
H          2.56386       -1.75443        0.13527
H          5.10115       -3.07754       -0.44503
H          3.63746       -3.28363       -1.14374
H          4.45315        1.09714       -1.02174
H          4.48807       -0.47821       -1.64979
C          4.22848       -0.44096        0.38552
C          3.63538       -1.84335        0.33569
N          4.06632        0.15666       -0.96706
N          4.26694       -2.59194       -0.75550
