31
2sa1a1tma_28.log	Energy: -1023682.0895962
S         -1.54085       -1.61122       -0.38833
O         -0.37181       -1.02914       -1.11390
O         -1.63366       -3.05230       -0.41653
O         -1.33573       -1.12323        1.15732
O         -2.78301       -0.87710       -0.74775
H         -0.38083       -1.03141        1.36097
H         -2.56906        0.60138       -0.29546
S          2.31608       -0.15240        0.60278
O          3.68043       -0.30342        1.05428
O          1.22299       -0.21791        1.56601
O          2.15324        1.23692       -0.13056
O          2.08732       -1.21237       -0.52837
H          3.00625        1.40632       -0.68674
H          1.10275       -1.22666       -0.80381
N          4.44402        1.43969       -1.40951
H          5.00511        0.87948       -0.77079
H          4.89005        2.34460       -1.51691
H          4.44521        0.97510       -2.31235
N         -2.47479        1.61834        0.02856
C         -3.05344        1.67590        1.39203
H         -4.10529        1.39336        1.33988
H         -2.51797        0.96000        2.01519
H         -2.95189        2.68900        1.78859
C         -1.03023        1.96984        0.02774
H         -0.51438        1.36572        0.77280
H         -0.61035        1.74095       -0.95098
H         -0.92094        3.03245        0.25786
C         -3.24104        2.42945       -0.94337
H         -2.78742        2.31339       -1.92797
H         -4.26857        2.06570       -0.97509
H         -3.22087        3.47955       -0.64218
