21
2sa1ma_17.log	Energy: -938855.4732188
S          1.22049       -0.68765        0.05270
O          0.04006       -1.56049       -0.08628
O          2.40007       -1.34074        0.64438
O          1.55471        0.03973       -1.19951
O          0.84654        0.43751        1.14013
H         -0.04021        0.80729        0.92558
S         -2.74605        0.38760       -0.10449
O         -1.65328        1.23580        0.33686
O         -3.90246        0.94876       -0.74836
O         -2.21173       -0.76980       -1.00572
O         -3.20599       -0.36915        1.24107
H         -1.30351       -1.10013       -0.68365
H         -4.02292       -0.85814        1.06537
N          4.11369        0.32974       -0.57369
H          3.23467        0.37821       -1.15173
H          3.88935       -0.50933        0.00121
C          4.21508        1.53078        0.29261
H          5.05047        1.41538        0.98216
H          4.35358        2.41411       -0.32948
H          3.28100        1.61207        0.84940
H          4.93680        0.17561       -1.15052
