21
2sa1ma_15.log	Energy: -938859.8247899
S          2.23501       -0.47808        0.12366
O          2.63673        0.77026       -0.56591
O          3.21304       -1.03837        1.03326
O          0.85358       -0.30787        0.66662
O          1.99747       -1.58304       -1.05015
H          2.77458       -2.15730       -1.07614
S         -2.34437       -0.42131       -0.11977
O         -1.80443        0.56450       -1.04445
O         -3.59690       -1.06713       -0.39815
O         -1.29261       -1.51327        0.21233
O         -2.46412        0.41202        1.26164
H         -0.36025       -1.10483        0.37965
H         -2.91759       -0.13192        1.92232
N          0.40314        2.24108       -0.75258
H          1.32015        1.71330       -0.77848
H          0.39233        2.94059       -1.49167
C          0.20693        2.84376        0.58929
H         -0.76551        3.33344        0.62955
H          0.24825        2.03421        1.31657
H          1.00562        3.55939        0.78157
H         -0.35361        1.55635       -0.93469
