26
2sa1eda_73.log	Energy: -998252.7112110
S         -1.40015        1.50063        0.07940
O         -1.65460        1.06305       -1.30391
O         -1.59594        0.44218        1.07652
O         -0.13478        2.25324        0.26406
O         -2.55232        2.61460        0.31596
H         -2.30457        3.14151        1.08781
S          2.47051       -0.03123       -0.17103
O          3.86722       -0.26943       -0.42629
O          1.44606       -0.65273       -0.98389
O          2.12762       -0.52306        1.33171
O          2.26033        1.50978       -0.09353
H          2.83264       -0.21837        1.92108
H          1.27616        1.76856        0.02036
H         -2.78723       -1.28749       -0.10270
H         -2.98642       -2.66532       -1.21306
H         -2.53736       -3.24497        1.26939
H         -1.44710       -4.03185        0.11903
H         -0.73905       -1.57349        1.58533
H          0.01093       -3.05488        1.66772
H         -1.30698       -0.58384       -1.55525
H         -0.30976       -1.63701       -0.73061
C         -2.28994       -2.14708       -0.55285
C         -1.73254       -3.06299        0.54413
N         -1.15307       -1.59798       -1.34423
N         -0.53965       -2.43771        1.08720
H         -0.95169       -2.11416       -2.19667
