31
2sa1ma1dma_25.log	Energy: -1023693.9777067
S         -2.13159       -0.17961       -0.57224
O         -1.56621        0.07723        0.79688
O         -3.34597        0.54781       -0.86708
O         -1.02262        0.45590       -1.57492
O         -2.13017       -1.63877       -0.83078
H         -0.90633       -2.25695        0.10035
S          2.26539       -0.42760       -0.43307
O          1.72453       -0.41902        0.94390
O          3.63676       -0.86224       -0.60145
O          1.29340       -0.99682       -1.39080
O          2.26804        1.21106       -0.75837
H         -0.22729       -0.12939       -1.60575
H          2.77146        1.36028       -1.56993
N         -0.19240       -2.50778        0.83685
H          0.36004       -3.29463        0.50203
C         -0.87603       -2.79062        2.11835
H         -0.13671       -3.01026        2.88851
H         -1.44752       -1.90056        2.37933
H         -1.55103       -3.63617        1.98864
H          0.44587       -1.69173        0.92790
N          0.02100        2.20638        0.70643
C         -0.88416        3.26585        0.20908
C          0.67892        2.49810        1.99698
H         -0.55110        1.31837        0.79418
H         -0.32505        4.19243        0.06802
H         -1.31689        2.92996       -0.73341
H         -1.68052        3.41550        0.93891
H          1.25466        3.42138        1.91295
H         -0.08738        2.60717        2.76579
H          1.33805        1.66273        2.23361
H          0.74418        1.99590        0.00544
