36
2sa1dma1eda_202.log	Energy: -1083070.3500991
S         -0.56885        2.15200        0.06898
O          0.03801        3.42445        0.33474
O         -1.81397        2.36738       -0.85331
O          0.26456        1.08814       -0.50479
O         -1.17421        1.61053        1.42785
H          0.71769       -0.53586        0.17644
H         -1.59523        0.70766        1.29680
S         -2.79673       -1.13122       -0.26001
O         -3.90783       -2.04349       -0.11255
O         -2.03859       -0.82021        0.99189
O         -1.62207       -1.94734       -1.08036
O         -3.06611        0.08541       -1.04758
H         -2.03804       -2.39980       -1.82666
H         -2.29641        1.49677       -1.00723
N          0.69112       -1.32323        0.84545
C          1.29045       -0.85170        2.11761
C          1.33021       -2.52996        0.26904
H         -0.32442       -1.46982        0.97565
H          2.30159       -0.50036        1.90677
H          0.68915       -0.02232        2.49180
H          1.28898       -1.67094        2.83742
H          2.39080       -2.32364        0.09014
H          1.21577       -3.35239        0.97715
H          0.81373       -2.77045       -0.65946
H          5.60935        0.08703       -0.96983
H          4.78941       -1.03635       -2.05870
H          3.61606        1.11848       -1.96568
H          2.59399       -0.18942       -1.37332
H          4.00948        1.72669        0.33259
H          2.40130        1.55403        0.14023
H          5.33263       -2.15435       -0.02086
H          4.49975       -1.05070        0.85547
C          4.69870       -0.52245       -1.09636
C          3.48769        0.40033       -1.14258
N          4.53737       -1.52502       -0.04224
N          3.27908        1.04211        0.15742
