30
2sa1a1eda_134.log	Energy: -1033756.8916586
S          0.65505        1.76637       -0.02976
O          1.33549        1.32886        1.19660
O          1.05161        1.05853       -1.24978
O         -0.82360        1.84291        0.16050
O          1.12101        3.28425       -0.32728
H          0.86328        3.83938        0.42195
S         -2.68572       -0.67389       -0.13029
O         -3.93910       -1.36183       -0.03763
O         -1.49165       -1.38896       -0.55257
O         -2.88648        0.58867       -1.07401
O         -2.38784       -0.00521        1.28695
H         -2.09881        1.17515       -0.98938
H         -1.70709        0.70232        1.15510
H          2.71523       -3.12763       -0.49295
H          2.62149       -2.39044       -2.11305
H          4.59030       -1.60019       -0.86801
H          3.49693       -0.26880       -1.25935
H          4.45542       -0.61424        1.15309
H          2.92124       -0.09012        0.97594
H          0.45787       -2.26938       -1.13310
H          1.00237       -1.68668        0.33531
C          2.56404       -2.19354       -1.03906
C          3.61451       -1.16472       -0.63324
N          1.20026       -1.70366       -0.72405
N          3.54465       -0.87557        0.79581
H          1.06038       -0.73408       -1.06277
N          0.61669       -1.52681        1.97293
H          1.25647       -2.01921        2.58738
H         -0.33810       -1.75453        2.23225
H          0.75582       -0.52728        2.11719
