39
2sa1eda1tma_79.log	Energy: -1107744.9153725
S          0.04807       -1.72559       -0.03741
O         -0.56288       -0.95215       -1.30553
O          0.34762       -0.69135        0.97453
O         -1.04933       -2.62722        0.35641
O          1.28683       -2.40259       -0.48913
H          2.44208       -1.25521        0.01011
S         -0.08702        2.34265       -0.06986
O         -1.33604        1.90198        0.56862
O          1.05874        2.57899        0.81010
O          0.27001        1.53703       -1.26923
O         -0.51533        3.80494       -0.65142
H         -0.22455       -0.01168       -1.33336
H          0.29682        4.28155       -0.86692
H         -4.57374       -0.62763        1.39226
H         -3.96021        1.01788        1.02248
H         -4.76434        0.01524       -1.02061
H         -3.00231        0.11539       -1.11831
H         -4.22317       -2.08555       -1.71156
H         -2.89888       -2.22957       -0.76925
H         -2.48464       -0.33038        2.47008
H         -2.15011       -1.33478        1.18738
C         -3.81061       -0.05202        0.86462
C         -3.83521       -0.39897       -0.61796
N         -2.48169       -0.38684        1.45386
N         -3.84092       -1.84479       -0.80529
H         -1.77537        0.30799        1.11803
N          3.28954       -0.64013        0.08558
C          3.21443        0.14626        1.34590
H          2.37784        0.84363        1.28138
H          3.05603       -0.54473        2.17359
H          4.15696        0.68538        1.47063
C          4.44595       -1.56496        0.06963
H          4.40088       -2.20125        0.95390
H          4.38678       -2.18558       -0.82492
H          5.37271       -0.98708        0.06989
C          3.26293        0.24016       -1.11163
H          3.28767       -0.38749       -2.00331
H          2.33952        0.82320       -1.09753
H          4.13283        0.90031       -1.08493
