28
2sa1a1dma_69.log	Energy: -998998.8160665
S         -1.93362        0.39656        0.40332
O         -3.01065        1.35472        0.48382
O         -0.87733        0.42573        1.40962
O         -2.49021       -1.05876        0.37382
O         -1.28047        0.59734       -1.02683
H         -3.41968       -1.07105       -0.11149
H         -0.44358        0.06844       -1.09219
S          1.92390       -1.19640       -0.10555
O          3.22269       -0.63671       -0.38561
O          0.82296       -1.07132       -1.04561
O          2.11813       -2.78111        0.06658
O          1.45621       -0.80851        1.33801
H          3.03560       -2.95221        0.32236
H          0.60062       -0.29079        1.32506
N          1.41988        1.92425       -0.15266
C          1.90833        2.23429       -1.48786
C          2.33003        2.36330        0.89501
H          0.51387        2.35893       -0.01398
H          2.82541        1.66608       -1.67170
H          1.16674        1.92821       -2.23104
H          2.12964        3.30507       -1.63675
H          3.26030        1.79142        0.82172
H          2.57892        3.43673        0.83554
H          1.88498        2.16282        1.87325
N         -4.80810       -0.90709       -0.78342
H         -5.07323        0.05222       -0.57141
H         -5.52700       -1.52549       -0.42122
H         -4.78037       -1.00953       -1.79327
