36
2sa1dma1eda_66.log	Energy: -1083089.0653180
S         -1.09186        1.54464       -0.74152
O         -1.89164        0.51335       -1.43075
O         -1.17305        1.50981        0.71660
O          0.30178        1.61390       -1.25928
O         -1.76663        2.96830       -1.12980
H         -1.78478        3.04534       -2.09392
S          1.86420       -1.67514       -0.37179
O          3.19039       -2.11833        0.00102
O          0.97989       -2.64217       -1.03854
O          1.11198       -0.99018        0.75188
O          2.14492       -0.46522       -1.42177
H          1.65630        0.53825        1.07710
H          1.33937        0.07729       -1.55626
N          1.98270        1.53857        1.01302
C          3.44394        1.54791        0.77211
C          1.54515        2.30102        2.20125
H          1.47805        1.86864        0.17241
H          3.94369        1.09193        1.62741
H          3.64661        0.96138       -0.12396
H          3.78244        2.57733        0.64368
H          2.01055        1.86925        3.08844
H          1.85017        3.34332        2.09349
H          0.45942        2.23265        2.26429
H         -3.10492       -3.05318        0.34437
H         -1.98922       -2.92482        1.73242
H         -4.01019       -1.67969        2.23016
H         -2.69742       -0.51542        2.00067
H         -4.95280       -0.16380        0.80664
H         -3.62556        0.01565       -0.13108
H         -0.87105       -2.55121       -0.45758
H         -1.78047       -1.16686       -0.65743
C         -2.48562       -2.37246        0.93115
C         -3.34390       -1.24038        1.48189
N         -1.42295       -1.83902        0.04302
N         -4.15433       -0.65379        0.42265
H         -0.68413       -1.33071        0.56805
