37
2sa1dma1tma_59.log	Energy: -1072991.2415021
S          0.05225       -1.02389        0.88694
O         -0.91039       -0.30606        1.75373
O          0.44875       -0.18814       -0.28523
O          1.20180       -1.59440        1.58023
O         -0.72001       -2.29171        0.27908
H         -1.55666       -1.97826       -0.12957
S         -3.54529        0.23159       -0.42337
O         -4.95161        0.50015       -0.56997
O         -3.00025       -1.08254       -0.70971
O         -2.73842        1.21493       -1.41702
O         -3.10575        0.70760        0.99248
H         -3.21115        2.05845       -1.45878
H         -2.20169        0.31236        1.27583
N          2.19630        2.17042        0.18916
C          2.29235        3.50697       -0.37770
C          2.26342        2.17334        1.64596
H          1.31626        1.73922       -0.08429
H          3.28485        3.92534       -0.17534
H          2.16179        3.45893       -1.46318
H          1.54515        4.21024        0.02695
H          3.26194        2.49163        1.96928
H          1.52744        2.84738        2.11283
H          2.08493        1.16362        2.02638
N          3.00660       -0.81067       -0.85710
C          3.96125       -0.63388        0.26570
H          4.05871        0.43542        0.45142
H          3.54279       -1.12831        1.14243
H          4.92157       -1.07405       -0.01347
C          2.79020       -2.24444       -1.17689
H          2.45545       -2.74804       -0.26993
H          2.01303       -2.31821       -1.93793
H          3.72433       -2.67621       -1.54276
C          3.39778       -0.01921       -2.04652
H          2.62896       -0.13438       -2.81161
H          3.46373        1.02541       -1.74012
H          4.35792       -0.38104       -2.42178
H          2.06594       -0.44635       -0.54997
