25
2sa1a1ma_66.log	Energy: -974342.3221560
S          2.54530        0.68903        0.13749
O          3.96909        0.69494        0.33733
O          1.64176        0.32892        1.21598
O          2.07177        2.16933       -0.27894
O          2.24268       -0.15898       -1.13730
H          2.72832        2.55330       -0.87797
H          1.28040       -0.48803       -1.16111
S         -1.30125       -0.51819       -0.44217
O         -0.13942       -1.09751       -1.14500
O         -2.53135       -1.31920       -0.53202
O         -0.95704       -0.55107        1.12807
O         -1.53034        0.90851       -0.78819
H         -0.04915       -0.19665        1.26153
H         -3.21204        1.21392       -0.56526
N         -4.13036        0.81886       -0.23781
H         -4.90951        1.17987       -0.78272
C         -4.28476        1.03200        1.22342
H         -5.17973        0.51967        1.57414
H         -3.40241        0.61624        1.71065
H         -4.35348        2.09997        1.42599
H         -3.96361       -0.18895       -0.43764
N          1.74840       -3.08026        0.70504
H          1.00147       -2.80514        0.07433
H          2.62057       -3.00687        0.19192
H          1.77937       -2.39256        1.45037
