31
2sa1ma1dma_69.log	Energy: -1023679.0984029
S         -1.56923        0.17925       -0.83362
O         -2.90409        0.32349       -1.45372
O         -0.42950        0.34115       -1.74547
O         -1.46462        1.05565        0.37767
O         -1.57669       -1.32112       -0.30048
H         -3.05852        0.97819        1.08293
H         -0.64402       -1.69836       -0.18862
S          1.92720       -1.40548        0.19515
O          3.22666       -2.01019        0.39083
O          0.80614       -2.31915       -0.11465
O          1.52644       -0.43764        1.26899
O          2.10045       -0.46040       -1.12328
H          1.74012        1.00714        0.95012
H          1.20079       -0.24808       -1.46658
N         -4.04102        0.62698        0.94804
H         -4.72448        1.32411        1.23179
C         -4.22922       -0.68570        1.61604
H         -5.21838       -1.07559        1.37833
H         -3.45881       -1.35793        1.23636
H         -4.11890       -0.56088        2.69269
H         -4.02492        0.51772       -0.09409
N          2.06760        2.03213        0.79988
C          1.27021        2.69547       -0.25871
C          3.52204        1.97332        0.52000
H          1.90569        2.50014        1.69027
H          1.45497        2.17790       -1.19883
H          0.21339        2.59093       -0.01127
H          1.56726        3.74355       -0.33729
H          3.65835        1.39545       -0.39444
H          3.92166        2.98253        0.40297
H          4.01577        1.45604        1.34282
