25
2sa1a1ma_31.log	Energy: -974361.5401794
S         -1.58126       -0.42458       -0.67900
O         -2.81311       -0.84943       -1.29830
O         -0.52117        0.17733       -1.48174
O         -1.91098        0.67800        0.42816
O         -1.02035       -1.61425        0.15090
H         -2.73965        0.34862        0.97693
H         -0.09321       -1.34837        0.55882
S          2.36227       -0.54799        0.28148
O          1.10406       -0.73864        1.08696
O          3.50480       -1.30132        0.72770
O          2.01241       -1.12079       -1.18344
O          2.57788        0.91915        0.10813
H          1.22485       -0.65552       -1.52663
H          1.33611        1.72779        0.44536
N          0.46022        2.33126        0.63841
H         -0.33091        1.69062        0.79097
C          0.18687        3.21855       -0.51657
H         -0.67519        3.85139       -0.30525
H          1.06859        3.82845       -0.71079
H         -0.02175        2.58213       -1.37551
H          0.62430        2.85458        1.49562
N         -3.98443       -0.35501        1.60262
H         -4.45028       -0.77343        0.79985
H         -4.65757        0.22134        2.09743
H         -3.70155       -1.11194        2.21882
