33
2sa1ma1eda_33.log	Energy: -1058428.6303971
S          1.87355       -1.63630       -0.50972
O          0.99640       -1.36018        0.70921
O          3.07894       -0.80597       -0.42402
O          2.00841       -3.04695       -0.79358
O          0.97848       -1.05495       -1.73301
H          0.94765       -0.07493       -1.66227
S         -0.60869        2.00577       -0.49348
O          0.70603        1.64542       -1.07879
O         -1.71223        1.20650       -1.05940
O         -0.59337        2.07457        0.97336
O         -0.88877        3.53946       -0.93136
H         -0.91377        3.58133       -1.89744
N          1.99233        1.06779        1.40690
H          1.57136        0.10843        1.30986
H          2.21495        1.31589        0.43693
C          3.18719        1.05815        2.27228
H          3.62753        2.05460        2.30606
H          2.89941        0.74679        3.27623
H          3.89597        0.34598        1.85063
H          1.23509        1.69888        1.69420
H         -2.23250       -1.68286        2.02351
H         -2.05646        0.03480        1.58087
H         -4.48019       -0.61433        1.71861
H         -4.01185       -0.11073        0.09094
H         -4.49009       -2.86838        0.95361
H         -5.04930       -2.09205       -0.37391
H         -0.59700       -1.48608        0.31037
H         -2.02626       -2.15865       -0.37005
C         -2.41185       -0.94035        1.24095
C         -3.88192       -0.89572        0.84232
N         -1.60838       -1.32855        0.05854
N         -4.25495       -2.17912        0.24770
H         -1.62679       -0.54678       -0.62166
