30
2sa1a1eda_186.log	Energy: -1033746.9249382
S         -3.10834       -0.57788        0.13743
O         -4.35127       -1.24970       -0.14058
O         -3.01920        0.87003        0.12791
O         -2.63864       -0.99931        1.62097
O         -2.00500       -1.18914       -0.77784
H         -2.97239       -1.88902        1.80356
H         -1.22138       -0.54008       -0.93023
S          0.34074        1.46519       -0.30958
O         -0.08842        0.38769       -1.25034
O          1.50790        2.21248       -0.79118
O         -0.84144        2.53293       -0.28133
O          0.50638        0.93857        1.06461
H         -1.68266        2.06114       -0.09257
H          2.26279        1.15809        1.61113
H          3.97958       -3.02538        0.15481
H          3.43284       -2.21584        1.63355
H          1.53184       -2.89146        0.14424
H          1.56936       -1.15814        0.43910
H          2.18032       -2.47979       -2.06349
H          1.45507       -1.03037       -1.76618
H          5.27647       -1.07992        0.34575
H          4.13372       -0.77660       -0.80196
C          3.50025       -2.11700        0.54497
C          2.10069       -1.97450       -0.05982
N          4.28456       -0.91664        0.20207
N          2.20614       -1.65224       -1.48018
N          3.19391        1.39808        1.22419
H          2.93528        1.95861        0.39215
H          3.68882        0.49304        0.89213
H          3.75156        1.93491        1.88103
