33
2sa1ma1eda_04.log	Energy: -1058431.1783804
S          0.94780        1.73875       -0.61693
O          0.65732        1.07374        0.72155
O         -0.04626        2.78648       -0.85882
O          2.35371        2.05136       -0.78760
O          0.68000        0.55285       -1.68756
H         -0.24612        0.22761       -1.59132
S         -2.10343       -1.44953       -0.15082
O         -1.00411       -2.42354       -0.00836
O         -2.65230       -0.99520        1.14117
O         -1.82543       -0.33748       -1.07799
O         -3.29250       -2.24703       -0.90962
H         -3.47747       -3.05685       -0.41463
N         -1.98936        1.70677        0.94799
H         -0.97039        1.47394        1.03851
H         -2.11599        1.80063       -0.06274
C         -2.33569        2.94795        1.66649
H         -3.38863        3.18130        1.50945
H         -2.14396        2.80761        2.72985
H         -1.70934        3.75022        1.27752
H         -2.50851        0.86203        1.23914
H          2.68390       -2.74702       -0.48172
H          2.13553       -1.23761       -1.26226
H          4.57585       -1.11926       -0.65909
H          3.61073        0.10265        0.16488
H          4.75353       -2.30380        1.37535
H          4.70519       -0.77578        1.95405
H          0.62290       -2.00942        0.51948
H          1.92422       -1.78138        1.60798
C          2.52769       -1.67356       -0.34300
C          3.80442       -0.97301        0.10679
N          1.50351       -1.49768        0.71855
N          4.18114       -1.46869        1.43388
H          1.22949       -0.48280        0.79284
