36
2sa1dma1eda_229.log	Energy: -1083065.6841082
S         -3.22553        0.69502        0.31045
O         -2.55756        0.66025       -0.98252
O         -4.51394        1.31942        0.44783
O         -3.29581       -0.71984        0.94133
O         -2.16907        1.48268        1.24543
H         -2.52934       -1.35499        0.64134
H         -2.55286        1.59735        2.12672
S         -0.17667       -1.70732       -0.20208
O          0.86898       -2.66409       -0.53287
O         -1.49668       -2.29124        0.14410
O          0.22515       -0.62779        0.70969
O         -0.44675       -0.94324       -1.65151
H          2.21927        0.45326       -0.77363
H         -1.28824       -0.44316       -1.56062
N          1.53437        1.03181       -1.36186
C          2.24181        1.50930       -2.56476
C          0.87260        2.09817       -0.57586
H          0.80963        0.33913       -1.62926
H          3.02008        2.21543       -2.26884
H          2.69456        0.65547       -3.06980
H          1.53867        2.00385       -3.23670
H          1.61760        2.83313       -0.26595
H          0.11474        2.58153       -1.19490
H          0.39490        1.63251        0.28572
H          5.32956        0.34281        1.25489
H          4.48173        0.44011        2.78616
H          3.88847       -1.64413        1.71520
H          2.45354       -0.61105        1.75422
H          4.14875       -0.99631       -0.59952
H          2.64448       -1.59565       -0.35056
H          3.79795        1.88759        0.32935
H          2.90874        1.93592        1.70796
C          4.33395        0.46182        1.70139
C          3.44869       -0.72129        1.31219
N          3.84182        1.78572        1.33699
N          3.25896       -0.80227       -0.14586
