37
2sa1dma1tma_62.log	Energy: -1072993.2083740
S         -0.43012       -1.77448        0.24295
O         -1.64450       -2.54499        0.46005
O          0.78028       -2.55191       -0.10825
O         -0.61188       -0.63080       -0.70068
O         -0.13427       -1.09866        1.67904
H         -2.11726       -0.03338       -0.61799
H          0.72425       -0.62831        1.61805
S          2.99432        0.09671       -0.20801
O          4.37247        0.50939       -0.23479
O          2.19813        0.23947        0.99917
O          2.17996        0.96885       -1.29624
O          2.90840       -1.35294       -0.76030
H          2.71750        1.04851       -2.09709
H          2.02211       -1.82667       -0.52162
N         -0.57116        2.23044        0.40372
C         -0.24817        2.36842        1.81890
C         -0.03943        3.33205       -0.38652
H         -0.17036        1.36104        0.05788
H         -0.77012        3.23922        2.23236
H         -0.58169        1.47831        2.36009
H          0.82973        2.49427        2.00410
H         -0.54715        4.26374       -0.11037
H          1.04329        3.48034       -0.24827
H         -0.22258        3.14582       -1.44913
N         -3.13732        0.22867       -0.50599
C         -3.36651        0.35908        0.95663
H         -3.10073       -0.58604        1.43144
H         -2.72143        1.15866        1.32078
H         -4.41882        0.59528        1.13143
C         -3.35708        1.51541       -1.20807
H         -2.67756        2.24668       -0.76528
H         -3.12987        1.38070       -2.26640
H         -4.40059        1.81561       -1.08633
C         -3.92556       -0.88502       -1.08933
H         -3.68695       -0.96583       -2.15032
H         -3.63811       -1.80655       -0.58200
H         -4.99002       -0.67771       -0.95813
