28
2sa1a1dma_11.log	Energy: -999032.0915257
S         -2.51555       -0.44463       -0.13175
O         -2.64479       -1.69937       -0.87526
O         -1.57861       -0.58167        1.02277
O         -2.22986        0.76582       -0.91430
O         -3.97444       -0.12118        0.50444
H         -4.36075       -0.95300        0.80902
S          2.50215       -0.41979        0.07812
O          2.34681        0.79346        0.90860
O          2.55818       -1.66783        0.86238
O          1.55461       -0.46271       -1.04816
O          3.94494       -0.28486       -0.65495
H          4.63381       -0.33784        0.02152
N          0.02167        2.03017        0.04257
C          0.53030        2.84266       -1.08240
C         -0.61128        2.80071        1.13296
H         -0.69369        1.37440       -0.33009
H          1.27036        3.55164       -0.70885
H          0.99342        2.16592       -1.80040
H         -0.30421        3.37038       -1.54607
H          0.12138        3.48464        1.56381
H         -1.45986        3.35454        0.72971
H         -0.96020        2.09443        1.88606
H          0.81615        1.47823        0.42547
N          0.05940       -2.53824        0.07225
H          0.29046       -2.06720       -0.81116
H         -0.57438       -1.87744        0.58912
H         -0.41378       -3.42114       -0.09412
H          0.95922       -2.62392        0.57288
