25
2sa1a1ma_36.log	Energy: -974361.2424387
S         -2.35075       -0.65943       -0.30746
O         -3.34390       -1.53994       -0.86370
O         -1.05872       -0.55521       -1.08061
O         -2.80365        0.72310        0.01068
O         -1.92341       -1.33357        1.09869
H         -1.57226        1.69424       -0.03461
H         -1.16261       -0.85229        1.47410
S          1.66550       -0.42047        0.63912
O          2.87215       -0.92787        1.24442
O          0.59786        0.11771        1.49143
O          2.01689        0.77152       -0.34418
O          1.08741       -1.52334       -0.29157
H          2.86689        0.50245       -0.88916
H          0.15739       -1.22035       -0.66363
N         -0.62363        2.19057       -0.03162
H         -0.09499        1.75877        0.73858
C         -0.73178        3.65781        0.08151
H          0.26210        4.10521        0.09182
H         -1.30338        4.03867       -0.76425
H         -1.25429        3.89881        1.00662
H         -0.14162        1.88717       -0.87913
N          4.15220       -0.11374       -1.54340
H          3.91297       -0.80338       -2.25024
H          4.60364       -0.60666       -0.77572
H          4.82393        0.53181       -1.94604
