30
2sa1a1eda_142.log	Energy: -1033754.5681291
S         -0.10316        2.02132        0.21647
O          0.37684        2.00091       -1.16235
O         -1.53712        1.60710        0.32351
O          0.75363        1.34202        1.19905
O         -0.07498        3.55554        0.73230
H         -0.63464        4.08452        0.14723
S         -2.51656       -1.32510       -0.14192
O         -3.51608       -2.34947       -0.19659
O         -1.12763       -1.66485       -0.43790
O         -2.95490       -0.14744       -1.10824
O         -2.57468       -0.65016        1.29425
H         -2.40114        0.64752       -0.90409
H         -2.10484        0.22165        1.25293
H          2.19788       -1.78764       -1.64979
H          1.11013       -0.38239       -1.67243
H          3.23752        0.49478       -2.20708
H          2.89061        0.98574       -0.55804
H          4.77396       -1.10317       -1.37973
H          5.05760        0.21491       -0.47181
H          0.60588       -1.62880        0.19013
H          2.21422       -1.70946        0.76946
C          1.95753       -0.83994       -1.15963
C          3.13610        0.12044       -1.18015
N          1.51294       -1.14554        0.22743
N          4.36608       -0.50082       -0.67007
H          1.32435       -0.25234        0.72471
N          3.61725       -2.44694        1.62342
H          3.72405       -2.20527        2.60304
H          4.25714       -1.87459        1.06854
H          3.86658       -3.42407        1.51523
