39
2sa1eda1tma_49.log	Energy: -1107750.6849832
S          0.10957       -1.60968       -1.35700
O         -0.43571       -1.80893        0.02507
O          1.40464       -0.85614       -1.24004
O          0.16869       -2.81258       -2.15375
O         -0.89787       -0.61338       -2.09454
H         -0.70982        0.33317       -1.82812
S          0.53891        2.31571       -0.35905
O          0.45946        1.57655        0.94662
O         -0.57109        1.85246       -1.23869
O          0.69320        3.74629       -0.23221
O          1.89511        1.79294       -1.05656
H          1.75447        0.85401       -1.32112
H         -3.41440        1.62677        0.59479
H         -2.77155        0.77466       -0.81602
H         -5.05861       -0.08775       -0.21198
H         -3.82312       -1.33987       -0.05814
H         -5.10006        0.08761        2.15325
H         -4.85700       -1.51744        1.96841
H         -1.15139        0.92718        1.07187
H         -2.26873       -0.02781        1.95192
C         -3.08959        0.65330        0.21766
C         -4.18121       -0.39775        0.36900
N         -1.92114        0.22236        1.02151
N         -4.45197       -0.60566        1.79430
H         -1.45706       -0.62519        0.60762
N          2.24151       -0.90132        1.35547
C          3.29299        0.14539        1.43869
H          3.86461        0.13742        0.51079
H          2.80198        1.11115        1.55165
H          3.94255       -0.07378        2.28891
C          1.35381       -0.89016        2.54235
H          0.94402        0.11338        2.64738
H          0.55581       -1.61281        2.37136
H          1.93926       -1.16432        3.42312
C          2.81158       -2.25059        1.10997
H          1.98945       -2.95997        1.01236
H          3.37297       -2.22474        0.17669
H          3.45982       -2.52234        1.94570
H          1.67520       -0.69212        0.50417
