25
2sa1a1ma_47.log	Energy: -974356.8926686
S         -1.91543       -0.89133       -0.15938
O         -1.84058       -0.31778        1.18898
O         -1.98024        0.11246       -1.23013
O         -0.89651       -1.95770       -0.38173
O         -3.32846       -1.66640       -0.30099
H         -3.29855       -2.45610        0.25626
S          2.22232       -0.61784        0.24599
O          3.46566       -0.67602        0.97163
O          1.43748        0.60624        0.23828
O          2.52103       -0.86449       -1.32212
O          1.36285       -1.83635        0.65455
H          3.13733       -1.60595       -1.41017
H          0.40674       -1.84649        0.22922
N         -0.89261        2.20955        0.21604
H         -1.28353        1.59143       -0.52384
H         -0.46043        1.54612        0.86595
C         -1.96812        2.97902        0.87177
H         -1.54737        3.57579        1.68119
H         -2.43743        3.63360        0.13762
H         -2.70012        2.27568        1.26786
H         -0.12303        2.79956       -0.18771
N          1.44871        3.40463       -0.86240
H          1.95653        2.54772       -0.64467
H          1.94826        4.18134       -0.44205
H          1.47761        3.53085       -1.86922
