24
2sa1dma_18.log	Energy: -963520.6258501
S         -2.11828       -0.94703       -0.15113
O         -2.92737        0.26866       -0.15911
O         -2.60209       -2.11282       -0.86426
O         -0.68694       -0.57337       -0.48121
O         -1.98255       -1.39604        1.41605
H         -2.42184       -2.25182        1.50863
S          2.56555       -0.28917        0.09882
O          3.85068       -0.74520        0.55350
O          1.98629        0.94230        0.60517
O          2.62141       -0.03502       -1.49672
O          1.56213       -1.47365        0.23440
H          3.09937       -0.76365       -1.91912
H          0.60989       -1.19868       -0.02717
N         -0.45824        2.08423       -0.03498
C         -1.20980        2.89114       -1.02068
C         -0.89597        2.26903        1.37028
H         -0.56485        1.06464       -0.26909
H         -1.11013        3.95026       -0.77806
H         -0.80645        2.69503       -2.01408
H         -2.25351        2.57873       -0.98108
H         -0.76735        3.31487        1.65295
H         -1.94198        1.97047        1.43961
H         -0.28089        1.62829        2.00145
H          0.55137        2.24162       -0.09227
