24
2sa1dma_11.log	Energy: -963524.6509656
S         -2.15463       -0.64678        0.00533
O         -3.29520       -1.46572       -0.27866
O         -1.13964       -0.60324       -1.21189
O         -2.37478        0.75991        0.35489
O         -1.32649       -1.35319        1.14747
H         -1.01252        1.82571        0.21154
H         -0.43761       -0.91681        1.27012
S          1.95864       -0.89619        0.10247
O          3.10152       -1.54550        0.69980
O          1.04857       -0.15654        1.03758
O          2.53207        0.38127       -0.76314
O          1.17169       -1.70922       -0.84750
H          3.35030        0.10551       -1.19847
H         -0.31955       -1.18397       -1.10611
N         -0.04716        2.20283        0.10555
C          0.16554        3.34865        1.01498
C          0.19831        2.49169       -1.32667
H          0.54727        1.40429        0.41045
H         -0.52243        4.15175        0.74825
H         -0.02273        3.02442        2.03825
H          1.19606        3.69278        0.92058
H         -0.45390        3.30807       -1.63969
H          1.24550        2.76068       -1.46138
H         -0.02967        1.59103       -1.89550
