26
2sa1eda_20.log	Energy: -998260.2076148
S          0.99675       -1.56827        0.00179
O          2.45064       -1.46547        0.01421
O          0.36085       -1.24015        1.29604
O          0.35231       -0.83733       -1.12728
O          0.59859       -3.09444       -0.34529
H          0.94823       -3.67391        0.34630
S         -2.48910        0.48714        0.05024
O         -1.47595        1.51239       -0.18753
O         -3.87540        0.84355        0.11542
O         -2.32434       -0.62171       -1.07270
O         -2.13178       -0.27407        1.38718
H         -1.35833       -0.80191       -1.21303
H         -1.19456       -0.61623        1.38204
H          1.66183        3.50747        0.06390
H          0.45160        2.44496        0.83679
H          2.90736        2.25463        1.72585
H          2.11438        0.74369        1.30070
H          4.40678        1.84460        0.05037
H          3.68528        0.37630       -0.18215
H          0.42155        2.41717       -1.62229
H          1.99362        1.75974       -1.54745
C          1.36834        2.47100        0.24868
C          2.51161        1.67423        0.88711
N          1.08022        1.86198       -1.07979
N          3.52672        1.37828       -0.12455
H          0.67231        0.90612       -0.99828
