31
2sa1ma1dma_32.log	Energy: -1023688.5718506
S         -0.54532        1.59718       -0.26652
O         -0.80030        0.63129       -1.36508
O         -0.24796        0.86518        1.01241
O          0.51999        2.56460       -0.57553
O         -1.85187        2.41765       -0.03678
H         -2.60612        1.75980        0.28631
S          0.35864       -2.29675       -0.01036
O          0.35938       -3.72241        0.13681
O          1.64399       -1.59029       -0.08327
O         -0.47703       -1.93707       -1.29561
O         -0.47515       -1.66912        1.16983
H         -0.56716       -0.93669       -1.38541
H         -0.40304       -0.65386        1.14573
N         -3.63455        0.71401        0.78604
H         -3.27781        0.33811        1.66094
C         -3.82912       -0.37102       -0.19337
H         -4.57476       -1.10413        0.12998
H         -4.13772        0.06404       -1.14546
H         -2.87834       -0.88034       -0.35174
H         -4.51925        1.16569        0.99987
N          2.66179        0.96263        0.08110
C          3.84308        0.96956       -0.80635
C          2.95530        1.20445        1.51187
H          1.96064        1.67031       -0.23774
H          4.53113        0.18300       -0.49430
H          3.51267        0.78450       -1.82818
H          4.33270        1.94234       -0.74556
H          3.61114        0.41467        1.88044
H          3.43689        2.17721        1.61962
H          2.00659        1.19368        2.04810
H          2.18464        0.04160        0.00226
