24
2sa1dma_39.log	Energy: -963492.5041074
S         -0.83010       -1.08204       -0.07243
O          0.41041       -1.83500       -0.01820
O         -2.09508       -1.71414        0.16505
O         -0.74416        0.15695        0.90017
O         -0.80965       -0.40832       -1.52042
H          0.17359        0.54019        0.89917
H         -1.66819        0.02061       -1.68698
S          2.97582        0.49540        0.19584
O          4.27650        0.92549        0.61692
O          1.77022        1.02081        0.81312
O          2.77385        0.81680       -1.36254
O          2.95698       -1.07551        0.24608
H          3.60990        0.67848       -1.83273
H          2.03193       -1.41861        0.12830
N         -3.81692        1.31464        0.47390
C         -3.56792        1.45647       -0.94064
C         -4.91465        0.40893        0.76823
H         -2.97685        1.01834        0.95659
H         -4.40531        1.97336       -1.42169
H         -2.67101        2.06205       -1.10601
H         -3.47352        0.48180       -1.47424
H         -5.84661        0.82854        0.37357
H         -4.77835       -0.59657        0.33499
H         -5.02589        0.30654        1.85008
