31
2sa1ma1dma_11.log	Energy: -1023695.7106619
S          2.21276        0.35256       -0.34793
O          1.99241        1.75836        0.05146
O          2.37254       -0.54913        0.81458
O          1.28216       -0.15848       -1.35896
O          3.63159        0.34594       -1.12870
H          4.28701        0.78464       -0.56923
S         -2.27105        0.00401       -0.49198
O         -2.34987        1.44287       -0.83497
O         -1.43636       -0.16060        0.75657
O         -3.51401       -0.73341       -0.48266
O         -1.38325       -0.70369       -1.64016
H         -0.47756       -0.32340       -1.63930
N         -0.52974        2.48888        0.84889
H         -1.20594        2.31521        0.06543
H         -0.76101        1.72843        1.49538
C         -0.64938        3.83226        1.44524
H          0.05995        3.93039        2.26700
H         -0.42559        4.57728        0.68249
H         -1.66605        3.97791        1.80976
H          0.43340        2.28558        0.50301
N          0.22023       -2.27300        0.86895
C          0.18910       -3.19409       -0.28834
C         -0.01560       -2.92237        2.17325
H          1.12518       -1.75759        0.88254
H         -0.81581       -3.60437       -0.39341
H          0.44800       -2.62929       -1.18228
H          0.91299       -3.99490       -0.12670
H         -0.99991       -3.39245        2.16545
H          0.75553       -3.67305        2.35370
H          0.01863       -2.16179        2.95306
H         -0.49588       -1.50833        0.74842
