37
2sa1dma1tma_13.log	Energy: -1073015.3831468
S         -2.58498       -0.66393        0.19694
O         -2.26801       -2.02391        0.67945
O         -2.91138        0.29717        1.25319
O         -1.60072       -0.16565       -0.78818
O         -3.92653       -0.82156       -0.71952
H         -4.62621       -1.18906       -0.16264
S          2.77325        0.23753       -0.03993
O          3.24890       -1.01866       -0.62597
O          3.21778        1.46669       -0.69562
O          1.31164        0.21598        0.24470
O          3.37540        0.29263        1.48805
H          4.33151        0.41700        1.42097
N          0.39101       -2.32927       -0.08729
C          1.23171       -3.19880        0.76146
C          0.49827       -2.60600       -1.53664
H         -0.60355       -2.37829        0.20723
H          2.27669       -3.02893        0.49964
H          1.06450       -2.93271        1.80536
H          0.95560       -4.24181        0.59702
H          1.53084       -2.43056       -1.84128
H          0.20671       -3.64011       -1.72866
H         -0.17324       -1.92187       -2.05521
H          0.67751       -1.33285        0.06531
N         -0.72565        2.37846       -0.14430
C          0.30719        2.98546       -1.02276
H          1.28072        2.54612       -0.80335
H          0.04114        2.78312       -2.06089
H          0.32287        4.06344       -0.84622
C         -2.07957        2.91244       -0.44416
H         -2.31040        2.70841       -1.48973
H         -2.79933        2.40287        0.19636
H         -2.08182        3.98859       -0.25802
C         -0.39303        2.52528        1.29820
H         -1.16108        2.00570        1.87234
H          0.57703        2.06124        1.46776
H         -0.37339        3.58928        1.54443
H         -0.77012        1.35649       -0.34674
