30
2sa1a1eda_107.log	Energy: -1033762.9794417
S          2.18268        1.21269        0.24635
O          3.16825        2.24140        0.45902
O          0.96465        1.28964        1.12154
O          1.72573        1.05618       -1.17366
O          2.89455       -0.17659        0.63406
H          1.82383       -0.38185       -1.86051
H          2.21828       -0.88980        0.72601
S         -0.48427       -1.84497        0.35122
O          0.99454       -2.11464        0.36449
O         -1.32803       -2.97204        0.66035
O         -0.72454       -0.77783        1.53084
O         -0.81949       -1.13461       -0.92380
H         -0.02167       -0.08021        1.51053
H         -1.03562        0.52189       -0.84118
H         -3.35869        0.02620       -0.92450
H         -3.71728        1.61091       -1.63228
H         -2.66658        2.74109        0.32137
H         -2.38354        1.16457        1.08865
H         -1.09797        2.11292       -1.39344
H         -0.37601        1.72455        0.06475
H         -5.66432        1.05892       -0.53120
H         -4.90639        0.55835        0.82669
C         -3.61747        1.06849       -0.68451
C         -2.48556        1.68184        0.13211
N         -4.85875        1.22219        0.06051
N         -1.18188        1.52639       -0.56563
N          1.80069       -1.41185       -2.13049
H          1.57097       -1.90960       -1.23651
H          2.69217       -1.71426       -2.51285
H          1.04064       -1.57841       -2.78578
