31
2sa1ma1dma_35.log	Energy: -1023683.9187361
S         -1.66168        0.00131       -0.71710
O         -1.93091        0.26111        0.73312
O         -0.84828       -1.35976       -0.78960
O         -2.91053       -0.30782       -1.44585
O         -0.84815        1.06768       -1.32225
H         -4.01154       -1.02286       -0.27505
H          0.52709        1.62485       -0.48118
S          2.77228       -1.02434        0.28806
O          3.54597       -1.90534        1.14580
O          3.35794        0.32512        0.08833
O          2.75787       -1.72394       -1.19075
O          1.32431       -0.91208        0.59124
H          3.57533       -2.23159       -1.27624
H          0.02448       -1.26880       -0.30711
N         -4.23313       -1.02643        0.74930
H         -4.31684       -1.97962        1.09414
C         -5.41242       -0.18782        1.05144
H         -5.53849       -0.10579        2.13062
H         -5.23504        0.79905        0.62534
H         -6.30256       -0.62698        0.60172
H         -3.33567       -0.58253        1.09470
N          1.28901        2.06873        0.07585
C          0.83457        2.15204        1.48102
C          1.64258        3.36371       -0.53390
H          2.11436        1.41768        0.03237
H         -0.06459        2.76782        1.53077
H          0.60831        1.14020        1.81591
H          1.63152        2.58427        2.08847
H          0.77430        4.02444       -0.51345
H          2.46735        3.81246        0.02207
H          1.94707        3.19240       -1.56633
