36
2sa1dma1eda_244.log	Energy: -1083055.2293047
S          1.38759       -0.98872       -0.18148
O          1.82495        0.31782       -0.75182
O          0.36768       -1.67331       -0.98926
O          2.56055       -1.82568        0.14824
O          0.73337       -0.65848        1.24018
H          4.01820       -0.85164        0.12833
H         -0.25105       -0.65808        1.18047
S         -2.90771       -1.04411        0.13019
O         -3.80955        0.05949       -0.10327
O         -1.97082       -1.02957        1.23811
O         -3.82195       -2.34299        0.40149
O         -2.19634       -1.45230       -1.19735
H         -4.66466       -2.22175       -0.05773
H         -1.18939       -1.44582       -1.10658
N          4.36800        0.12644        0.00847
C          5.54758        0.19317       -0.87300
C          4.53080        0.74717        1.34044
H          3.50976        0.52126       -0.44797
H          6.38929       -0.30906       -0.39378
H          5.30957       -0.30273       -1.81392
H          5.79989        1.23789       -1.06065
H          5.34312        0.25261        1.87475
H          4.75317        1.80821        1.21919
H          3.59556        0.62299        1.88729
H         -2.02081        1.89877        1.13305
H         -0.26711        1.99611        1.22096
H         -1.22712        4.24271        1.22320
H         -0.29722        3.99929       -0.26758
H         -3.21969        3.73619       -0.12674
H         -2.39009        4.93957       -0.86874
H         -1.71917        1.61519       -1.28370
H         -0.10718        1.40805       -1.02621
C         -1.12521        2.19177        0.56839
C         -1.20350        3.69039        0.26808
N         -1.02538        1.32902       -0.59839
N         -2.34897        3.96461       -0.59677
