37
2sa1dma1tma_10.log	Energy: -1073018.4616329
S          1.68196        1.62229       -0.32086
O          2.17406        1.21717        1.00659
O          1.62836        0.49406       -1.28383
O          0.46255        2.43702       -0.31748
O          2.87855        2.58856       -0.85055
H          2.60563        2.96314       -1.69901
S         -1.10551       -1.66961       -0.76297
O         -0.27904       -2.86554       -0.89558
O         -2.55277       -1.80926       -0.86919
O         -0.70744       -0.91760        0.50279
O         -0.72891       -0.64251       -1.94125
H          0.90982       -1.39739        0.78161
H          0.15824       -0.23860       -1.76318
N          1.90636       -1.51932        1.07675
C          2.66168       -2.25180        0.03519
C          1.91589       -2.16010        2.40503
H          2.23967       -0.53581        1.13822
H          2.18008       -3.21386       -0.13631
H          2.62948       -1.65848       -0.87764
H          3.69290       -2.37997        0.36979
H          1.46513       -3.14992        2.32191
H          2.94248       -2.24515        2.76491
H          1.33216       -1.54743        3.09217
N         -2.42232        1.12972        0.73327
C         -2.63842        1.68241       -0.63134
H         -1.70050        2.12184       -0.96968
H         -2.92145        0.86218       -1.29146
H         -3.42989        2.43437       -0.58272
C         -3.62548        0.41400        1.22567
H         -3.84974       -0.39303        0.52697
H         -3.40672       -0.00784        2.20722
H         -4.45572        1.12054        1.29669
C         -1.95130        2.16750        1.68274
H         -1.76004        1.69637        2.64778
H         -1.03084        2.59834        1.28700
H         -2.72647        2.93034        1.78885
H         -1.66264        0.39741        0.65217
