36
2sa1dma1eda_195.log	Energy: -1083069.6936427
S         -0.08728       -0.52343       -0.93907
O          0.61411        0.79454       -0.98854
O         -1.32117       -0.55678       -1.71471
O          0.88332       -1.57367       -1.64983
O         -0.26403       -0.97274        0.46696
H          1.77638       -1.50751       -1.24499
H         -1.89491       -1.29666        0.65312
S          3.72425        0.07307        0.36580
O          5.10488        0.47748        0.42693
O          3.31189       -1.06458       -0.43520
O          3.24560       -0.30303        1.85929
O          2.86609        1.32383        0.01401
H          3.70980        0.27394        2.48223
H          1.93984        1.07488       -0.36165
N         -2.93785       -1.39956        0.68778
C         -3.37334       -1.53742        2.08751
C         -3.33382       -2.51665       -0.19238
H         -3.32147       -0.47999        0.28314
H         -2.95720       -2.45061        2.51680
H         -3.01336       -0.67735        2.65363
H         -4.46389       -1.57504        2.13159
H         -2.91560       -3.44911        0.19147
H         -4.42329       -2.58631       -0.22517
H         -2.93354       -2.31402       -1.18593
H         -4.09913        3.02243        0.43504
H         -3.83820        1.79504        1.68556
H         -1.79450        3.13106        1.36765
H         -1.49848        1.47031        0.86073
H         -1.65756        3.78283       -0.86432
H         -0.79844        2.37873       -1.03472
H         -4.85376        1.05160       -0.54215
H         -3.32767        1.20061       -1.12386
C         -3.55206        2.09945        0.67110
C         -2.05003        2.38269        0.60503
N         -3.87451        1.02036       -0.27650
N         -1.68716        2.77806       -0.74909
