36
2sa1dma1eda_62.log	Energy: -1083089.5928025
S          0.63357        2.13512       -0.50596
O         -0.55511        2.44900       -1.29070
O          0.34414        1.83695        0.91836
O          1.54851        1.13061       -1.09700
O          1.57096        3.46501       -0.50074
H          0.99405        4.23589       -0.41659
S         -0.00780       -2.23017       -0.50656
O         -1.30891       -1.64302       -0.91662
O          0.14068       -3.65813       -0.67067
O          1.10351       -1.59525       -1.51114
O          0.35940       -1.70192        0.84727
H          1.01446       -0.62016       -1.55097
H          1.77803       -0.94572        0.98637
N          2.69592       -0.42661        0.90224
C          3.73258       -1.38239        0.45871
C          2.99528        0.28717        2.15963
H          2.49586        0.25799        0.14930
H          3.86461       -2.14441        1.22826
H          3.38729       -1.84874       -0.46432
H          4.67202       -0.85286        0.29157
H          3.07064       -0.43844        2.97097
H          3.93887        0.82577        2.05525
H          2.18347        0.98999        2.34865
H         -3.31541        1.94634        0.61847
H         -2.70402        1.28557       -0.90777
H         -5.11138        0.62009       -0.54165
H         -4.03979       -0.78585       -0.56527
H         -5.29493        0.37491        1.80365
H         -5.14977       -1.19688        1.37062
H         -1.19853        0.89399        1.01084
H         -2.42574       -0.08511        1.66654
C         -3.09215        1.02307        0.07683
C         -4.30922        0.10852        0.00501
N         -2.02427        0.30163        0.80773
N         -4.68042       -0.29979        1.36178
H         -1.69515       -0.50266        0.21290
