39
2sa1eda1tma_12.log	Energy: -1107751.6571773
S          0.98436       -1.47499       -0.90566
O          0.02341       -2.40911       -1.49099
O          0.49337       -0.99764        0.45130
O          2.38292       -1.88438       -0.86552
O          1.00137       -0.13116       -1.79021
H          0.12574        0.33683       -1.72626
S         -1.47881        2.11860       -0.23209
O         -2.05612        1.40497        0.90428
O         -0.31839        2.97449        0.09323
O         -1.24158        1.26727       -1.42257
O         -2.66624        3.13846       -0.67236
H         -2.35536        3.65068       -1.43101
H          3.43071        2.38510        1.58563
H          2.47032        1.31661        2.64069
H          4.74292        0.32639        1.99491
H          3.37130       -0.68167        1.52233
H          5.24456        0.49885       -0.22611
H          3.95616       -0.48254       -0.59282
H          1.17910        2.18732        0.62293
H          2.31038        1.34745       -0.28908
C          2.92216        1.42052        1.65197
C          3.88008        0.26818        1.32360
N          1.85259        1.39826        0.63238
N          4.25668        0.34448       -0.08291
H          1.28495        0.52364        0.70777
N         -2.06198       -1.87294        0.82035
C         -1.79416       -3.33267        0.87365
H         -1.31035       -3.62456       -0.05809
H         -1.12457       -3.53523        1.71035
H         -2.74078       -3.85983        1.01200
C         -2.64413       -1.37334        2.09073
H         -1.95852       -1.61282        2.90462
H         -2.76709       -0.29436        2.00958
H         -3.60488       -1.86657        2.25587
C         -2.90178       -1.51617       -0.35498
H         -3.03566       -0.43581       -0.36262
H         -2.37187       -1.83124       -1.25381
H         -3.86264       -2.02862       -0.26512
H         -1.12721       -1.40828        0.68652
