26
2sa1eda_40.log	Energy: -998256.4738331
S         -1.08828       -1.62097        0.04853
O          0.35861       -1.93649       -0.19022
O         -1.29966       -0.84718        1.27038
O         -1.73220       -1.11165       -1.16427
O         -1.76623       -3.05071        0.39263
H         -1.67169       -3.62784       -0.37770
S          2.42013        0.36417       -0.08461
O          1.28080        1.24971        0.16558
O          3.73265        0.93296       -0.14571
O          2.41369       -0.77716        1.01240
O          2.14619       -0.42046       -1.43129
H          1.60359       -1.33651        0.87474
H          1.35616       -1.00588       -1.29357
H         -2.04376        3.66166        0.70394
H         -0.36662        3.45262        0.11387
H         -2.07665        3.01463       -1.70659
H         -1.10167        1.58834       -1.34566
H         -3.91261        1.89856       -0.83620
H         -2.98274        0.52337       -0.92480
H         -1.02658        2.24862        2.27355
H         -1.87111        1.20987        1.25970
C         -1.31762        2.95172        0.30110
C         -1.87122        2.25515       -0.94431
N         -1.09478        1.89295        1.32309
N         -3.03786        1.47161       -0.56289
H         -0.22522        1.37607        1.09793
