26
2sa1eda_103.log	Energy: -998245.9696446
S          0.55620       -1.19018        0.21887
O          1.68104       -2.06481        0.55639
O         -0.31208       -0.82325        1.35241
O          1.01137        0.02053       -0.54113
O         -0.32589       -2.04612       -0.79932
H          2.54302       -0.18910       -0.80152
H         -1.15839       -1.55830       -0.99037
S         -3.16282        0.45405       -0.12767
O         -2.59876       -0.51235       -1.05168
O         -4.58028        0.68982       -0.07042
O         -2.66340        0.17469        1.32394
O         -2.42664        1.83505       -0.51522
H         -1.71747       -0.20171        1.33132
H         -2.90105        2.56541       -0.09261
H          4.13490        1.99068       -1.23960
H          4.93283        2.40408        0.27664
H          5.42664        0.10777       -0.00804
H          4.09178        0.13310        1.17373
H          3.95038       -0.59726       -1.67789
H          3.42918       -1.46245       -0.33940
H          2.73557        3.26299        0.39579
H          2.04622        1.78668        0.15728
C          4.10094        1.83200       -0.14539
C          4.37548        0.36093        0.14461
N          2.87580        2.26590        0.50075
N          3.56005       -0.52447       -0.74070
