31
2sa1a1tma_29.log	Energy: -1023675.4728979
S          0.33499        0.21239       -0.21915
O          0.63165       -0.53441        1.00680
O         -0.67059        1.28682       -0.04781
O          1.56307        0.69722       -0.90021
O         -0.26702       -0.81911       -1.29049
H         -1.18137       -1.05730       -1.01768
S         -3.72449       -0.18802        0.17803
O         -4.90544       -0.54885        0.91620
O         -2.81916       -1.20535       -0.32464
O         -4.16336        0.61894       -1.14715
O         -2.94641        0.87773        1.00884
H         -4.88347        1.22508       -0.92122
H         -2.01442        1.04835        0.61952
N          3.63417        2.64056        0.11636
H          3.39912        3.17494        0.94728
H          2.75575        2.29966       -0.27547
H          4.02290        3.30080       -0.54982
N          3.63111       -0.71717        0.09449
C          3.18766       -2.11332       -0.14748
H          2.25140       -2.27020        0.38852
H          3.01865       -2.24648       -1.21647
H          3.96064       -2.80106        0.20255
C          4.85809       -0.37225       -0.66260
H          4.67597       -0.54776       -1.72356
H          5.06646        0.68437       -0.48735
H          5.68191       -1.00022       -0.31540
C          3.77959       -0.42813        1.54408
H          4.07380        0.61691        1.64485
H          2.81310       -0.59424        2.02023
H          4.54317       -1.09004        1.95965
H          2.85746       -0.09829       -0.27005
