30
2sa1a1eda_82.log	Energy: -1033766.5806683
S         -0.72223       -2.14182       -0.22484
O         -1.99665       -1.51404        0.22140
O          0.39217       -1.65386        0.67890
O         -0.73608       -3.57041       -0.41140
O         -0.39483       -1.50169       -1.66152
H         -0.63878       -0.54269       -1.66299
S         -1.30757        1.89125       -0.27673
O         -0.60823        1.18051       -1.40006
O         -0.51214        1.68760        0.97890
O         -1.67173        3.25968       -0.54466
O         -2.68071        1.09058       -0.06130
H         -2.50486        0.11704       -0.07275
H          2.86843        2.10072       -0.16734
H          2.00316        1.40704        1.20769
H          4.49975        1.05239        1.41848
H          3.64295       -0.48707        1.28379
H          5.19677        0.78831       -0.83773
H          5.21275       -0.77060       -0.33787
H          1.04657        0.81860       -0.99559
H          2.48847       -0.04641       -1.29044
C          2.63677        1.16762        0.35308
C          3.91082        0.42382        0.73825
N          1.85525        0.31596       -0.57074
N          4.61769        0.03580       -0.48135
H          1.42204       -0.49628       -0.07305
N         -1.06512       -0.34187        2.56144
H         -1.97975       -0.72855        2.32205
H         -0.94165       -0.25677        3.56526
H         -0.36895       -0.97340        2.10306
H         -0.94468        0.58197        2.04706
