33
2sa1ma1eda_162.log	Energy: -1058410.0459072
S         -0.04648        2.27736       -0.44919
O          0.60670        1.11143       -1.04418
O          0.61726        3.54580       -0.50620
O         -1.48597        2.43271       -1.08960
O         -0.36338        1.93913        1.06957
H         -1.10011        1.26431        1.09214
S         -2.51685       -1.08457        0.39616
O         -3.89185       -1.53762        0.42834
O         -1.56340       -1.70206        1.32711
O         -1.92431       -1.53424       -1.07751
O         -2.36555        0.40590        0.39124
H         -2.67831       -1.66118       -1.66832
H         -2.02951        1.64398       -0.83942
N          3.17941       -0.44397        1.86519
H          3.36544       -0.61409        2.84757
C          3.13670        0.99566        1.57453
H          4.05403        1.52769        1.85183
H          2.97008        1.13453        0.50290
H          2.29382        1.45012        2.10015
H          3.90670       -0.89027        1.31209
H          1.61427       -3.25975       -0.11370
H          0.36062       -2.58286       -1.17051
H          2.38363       -2.63752       -2.46557
H          2.04751       -0.95074       -2.07602
H          4.12392       -2.61584       -0.87029
H          4.26483       -1.15242       -1.57308
H          0.14691       -1.53864        0.88134
H          1.81296       -1.11015        1.00520
C          1.29620       -2.36248       -0.65225
C          2.35752       -1.90766       -1.64439
N          1.00471       -1.30722        0.34608
N          3.65780       -1.72212       -0.99407
H          0.80443       -0.42016       -0.14564
