31
2sa1ma1dma_91.log	Energy: -1023662.6883212
S          1.14013       -0.46874       -0.17697
O          1.75411        0.84819        0.05396
O          0.09781       -0.49824       -1.21898
O          2.19473       -1.49996       -0.41314
O          0.46524       -0.93956        1.18994
H          3.55319       -0.93044       -0.20428
H         -0.50919       -0.79449        1.16501
S         -3.14918       -0.32186        0.09889
O         -3.92095        0.83127        0.50295
O         -2.27034       -1.00803        1.02611
O         -4.20292       -1.44846       -0.36490
O         -2.41388       -0.02532       -1.24453
H         -5.00764       -1.00451       -0.66672
H         -1.41067       -0.16848       -1.17605
N         -1.01069        1.89967        0.77436
H         -1.70036        2.17843        1.46383
C         -1.05871        2.77341       -0.39508
H         -0.86577        3.83541       -0.18092
H         -0.31454        2.42885       -1.11817
H         -2.04368        2.68994       -0.86171
H         -0.09179        1.93758        1.20247
N          4.52465       -0.46126       -0.04116
C          4.55815        0.05055        1.35026
C          4.70366        0.59191       -1.06970
H          5.22917       -1.18750       -0.16086
H          3.74559        0.77028        1.45177
H          4.39091       -0.78175        2.03415
H          5.52340        0.51982        1.54941
H          3.88186        1.29984       -0.95739
H          5.66828        1.08428       -0.93266
H          4.64940        0.12904       -2.05515
