30
2sa1a1eda_77.log	Energy: -1033764.9491562
S         -1.87062       -1.33430       -0.24565
O         -1.00580       -2.00353       -1.20777
O         -1.36438       -1.30221        1.14356
O         -2.33723        0.01055       -0.68795
O         -3.22389       -2.22091       -0.09591
H         -3.57947       -2.38056       -0.98125
S          0.62029        2.24472       -0.27657
O          1.16470        3.57585       -0.39500
O          1.38818        1.14751       -0.91729
O          0.27497        1.82695        1.12843
O         -0.80393        2.30669       -1.04478
H         -1.18194        1.67021        1.52736
H         -1.17574        1.40559       -1.15237
H          1.89893       -3.04458        0.33658
H          1.40897       -2.12343       -1.09796
H          3.90229       -2.53124       -1.09319
H          3.51681       -0.80880       -0.99540
H          4.49709       -2.47214        1.19641
H          4.94797       -0.96104        0.75673
H          0.49319       -1.22622        1.01713
H          2.09426       -0.87249        1.45967
C          2.00463       -2.08970       -0.18544
C          3.46832       -1.75602       -0.44959
N          1.44783       -1.02264        0.67930
N          4.15746       -1.58910        0.83194
H          1.39980       -0.12725        0.12503
N         -2.21199        1.39062        1.70317
H         -2.22290        0.58141        2.32332
H         -2.56359        1.05828        0.78550
H         -2.76206        2.16051        2.07095
