39
2sa1eda1tma_74.log	Energy: -1107744.0113823
S         -2.85772        0.46824        0.01544
O         -2.41173        1.16804       -1.22005
O         -3.57201       -0.78167       -0.24879
O         -1.77936        0.39538        1.01096
O         -3.94226        1.47008        0.71920
H         -4.77939        1.36866        0.24739
S          2.56066       -0.59694        0.14408
O          1.70278       -0.22994       -0.99969
O          2.80441        0.47067        1.10936
O          2.14712       -1.88604        0.75428
O          3.98706       -0.90502       -0.58368
H          4.65122       -1.02580        0.10822
H         -0.58667        3.31686        0.70628
H          0.27169        1.88209        1.28450
H          1.67231        3.96326        1.55498
H          2.42019        2.77537        0.48694
H          1.09522        5.25288       -0.36004
H          2.55794        4.66811       -0.80054
H         -0.84474        1.76046       -0.99094
H          0.43041        2.77638       -1.48705
C          0.28572        2.67859        0.54229
C          1.58413        3.47464        0.57649
N          0.14050        2.06794       -0.80402
N          1.61147        4.40233       -0.55808
H          0.76250        1.24017       -0.89982
N         -0.22673       -2.87515       -0.02960
C         -0.74333       -2.17851       -1.23771
H         -0.82155       -1.11753       -1.01789
H         -0.03311       -2.32295       -2.05133
H         -1.72868       -2.57526       -1.48575
C          0.08659       -4.29473       -0.30964
H          0.82007       -4.34276       -1.11490
H          0.50499       -4.74798        0.58935
H         -0.82898       -4.81340       -0.60166
C         -1.14305       -2.72802        1.13410
H         -0.68362       -3.21669        1.99415
H         -1.29280       -1.66516        1.32994
H         -2.10251       -3.18799        0.89098
H          0.68312       -2.41927        0.24084
