30
2sa1a1eda_83.log	Energy: -1033764.2580550
S         -2.32062       -0.17120       -0.14773
O         -1.94627        1.05329       -0.88163
O         -1.65090       -1.38110       -0.67021
O         -2.25859       -0.05707        1.31617
O         -3.90257       -0.37683       -0.42366
H         -4.04263       -0.42783       -1.37931
S          2.01347       -1.15229       -0.35932
O          1.34978       -0.57425        0.86953
O          2.11382       -0.09897       -1.38976
O          3.20374       -1.92525       -0.09089
O          0.93376       -2.23532       -0.89179
H          0.06016       -1.80328       -1.01733
H          1.41731        3.90112       -0.62873
H         -0.37236        3.83997       -0.58007
H          0.47892        3.78965        1.68445
H         -0.21263        2.20848        1.32588
H          2.28755        2.59977        2.28666
H          1.90269        1.28256        1.37356
H          0.62297        2.34480       -2.23537
H          1.32214        1.40483       -1.07490
C          0.54960        3.29127       -0.37050
C          0.62830        2.87920        1.09593
N          0.55027        2.09099       -1.25172
N          1.92926        2.29956        1.39045
H         -0.34970        1.57597       -1.13075
N         -0.48942       -2.05724        1.96370
H         -0.33960       -2.46665        2.88055
H         -0.68793       -2.77885        1.27108
H         -1.27962       -1.37847        1.95209
H          0.36669       -1.50826        1.61343
