31
2sa1ma1dma_51.log	Energy: -1023682.2820534
S         -1.14301       -1.73757       -0.20723
O         -2.38913       -2.45090       -0.19278
O          0.01383       -2.75060       -0.50590
O         -0.99021       -0.56249       -1.05844
O         -0.86329       -1.27065        1.29385
H          0.13410        1.27451       -0.16637
H         -0.01300       -0.74253        1.31407
S          2.45530       -0.14454        0.23813
O          3.73892        0.09245        0.86004
O          1.26199        0.24655        1.04208
O          2.30353        0.95672       -0.98596
O          2.29005       -1.46408       -0.40197
H          3.02926        0.81764       -1.60913
H          0.90318       -2.27839       -0.53138
N         -2.73775        1.28833        1.12555
H         -2.39194        0.41173        1.51490
C         -3.82212        1.01044        0.16893
H         -4.66545        0.47381        0.61617
H         -4.18829        1.95301       -0.24684
H         -3.42410        0.40351       -0.64648
H         -3.08869        1.83337        1.90738
N         -0.43772        2.12840       -0.22549
C         -0.71586        2.44291       -1.64069
C          0.26648        3.19774        0.51014
H         -1.34181        1.87640        0.28209
H          0.22690        2.64155       -2.15177
H         -1.20379        1.58060       -2.09216
H         -1.36287        3.32067       -1.69123
H          1.23070        3.38124        0.03499
H         -0.34150        4.10426        0.49987
H          0.43244        2.86256        1.53350
