39
2sa1eda1tma_90.log	Energy: -1107736.7078937
S         -1.64061       -1.79569        0.62353
O         -0.61533       -2.25427        1.55787
O         -2.57620       -0.77638        1.14122
O         -1.07261       -1.39306       -0.69308
O         -2.53075       -3.11495        0.36191
H         -3.37827       -2.84488       -0.01829
S         -1.52403        1.99275       -0.68645
O         -1.73203        3.27270       -1.29597
O         -0.25279        1.73125       -0.00331
O         -2.69950        1.73736        0.32827
O         -1.71419        0.87940       -1.78755
H         -2.65557        0.81138        0.70360
H         -1.49433       -0.02707       -1.40981
H          1.87513        0.31989        3.12142
H          3.13602       -0.54867        2.20929
H          3.80268        1.74999        2.36787
H          3.33124        1.46653        0.69221
H          2.43262        3.53451        1.92727
H          1.26805        2.65498        1.18126
H          0.80914       -1.08192        1.50917
H          0.65669        0.45530        0.93000
C          2.35612        0.21506        2.14709
C          2.94143        1.55684        1.72134
N          1.34944       -0.26916        1.17094
N          1.97883        2.62993        1.90721
H          1.81795       -0.55505        0.24755
N          2.51292       -0.99039       -1.23911
C          1.93017       -0.03771       -2.18552
H          0.84174       -0.10270       -2.14260
H          2.22197        0.98075       -1.91331
H          2.25806       -0.23661       -3.21798
C          3.97042       -0.91269       -1.24445
H          4.28895        0.10574       -1.00303
H          4.38013       -1.59494       -0.49394
H          4.39305       -1.18197       -2.22602
C          2.05329       -2.35324       -1.51638
H          2.46823       -3.03888       -0.77183
H          0.96357       -2.38714       -1.44982
H          2.36770       -2.69091       -2.51689
