28
2sa1a1dma_34.log	Energy: -999025.8495133
S         -2.39078       -0.04360       -0.06282
O         -2.17467        1.19623        0.89196
O         -3.80240       -0.26179       -0.18003
O         -1.86717        0.46234       -1.47174
O         -1.51050       -1.12217        0.37912
H         -0.87812        0.55339       -1.45607
H         -0.32239       -1.47343        2.34860
S          1.28216        1.60654       -0.14796
O          1.57994        2.93226       -0.64577
O          0.80043        0.62049       -1.15809
O          2.71934        0.94439        0.29263
O          0.46003        1.53956        1.08251
H          3.33131        1.67474        0.45610
H         -1.20223        1.37498        1.02026
N          1.28895       -2.03864       -0.29519
C          0.47442       -3.16612       -0.79556
C          2.74419       -2.21851       -0.47778
H          1.00091       -1.15162       -0.74485
H          0.75755       -4.07261       -0.25743
H         -0.57507       -2.93561       -0.61930
H          0.65853       -3.30206       -1.86272
H          3.06535       -3.10374        0.07401
H          2.96509       -2.34510       -1.53886
H          3.24930       -1.33064       -0.09961
N          0.67845       -1.29711        2.30152
H          1.08480       -1.86412        0.74141
H          1.10187       -1.57783        3.17933
H          0.77745       -0.28577        2.20238
