30
2sa1a1eda_168.log	Energy: -1033752.9477616
S         -1.06149        1.66556        0.07854
O          0.37881        1.81872        0.43170
O         -1.23083        0.84686       -1.14276
O         -1.89750        1.27908        1.20528
O         -1.58106        3.14858       -0.30432
H         -1.11089        3.44821       -1.09471
S          2.84754       -0.42495       -0.34995
O          4.18273       -0.65324       -0.83350
O          1.78864       -1.37775       -0.60506
O          2.88092       -0.34319        1.27419
O          2.42956        1.01599       -0.75495
H          3.62907        0.20686        1.54834
H          1.53446        1.31114       -0.33141
H         -2.32352       -3.11118       -1.22347
H         -2.01556       -3.40384        0.50992
H         -4.18892       -2.42445        0.33367
H         -3.13310       -1.16128        0.98392
H         -4.69643       -0.60945       -0.96334
H         -3.14865       -0.13119       -1.16400
H         -0.12501       -2.33351       -0.72582
H         -1.02569       -0.95407       -0.84529
C         -2.16437       -2.63540       -0.25374
C         -3.36159       -1.75351        0.08367
N         -0.91340       -1.83608       -0.31362
N         -3.74754       -0.94816       -1.06766
H         -0.60442       -1.54943        0.67090
N         -0.15015       -0.97550        2.22815
H          0.81142       -0.64875        2.15417
H         -0.21546       -1.56229        3.05309
H         -0.74086       -0.15515        2.36444
