36
2sa1dma1eda_221.log	Energy: -1083064.9748468
S         -0.72965        2.11064        0.33868
O         -0.96209        2.07392       -1.10810
O         -1.89103        1.60872        1.12438
O          0.56002        1.52371        0.73809
O         -0.58428        3.65429        0.79573
H         -1.46037        4.06306        0.76628
S         -2.13747       -1.62419       -0.13666
O         -2.88960       -2.84518       -0.23458
O         -0.75915       -1.61880        0.30836
O         -2.00970       -0.96438       -1.62395
O         -2.99886       -0.58580        0.62747
H         -2.88794       -0.83266       -2.00847
H         -2.50453        0.30659        0.82276
N          2.10550       -1.01735        1.42898
C          2.98536       -0.15799        2.21226
C          2.11281       -2.40336        1.88157
H          1.15853       -0.65335        1.49260
H          4.03201       -0.41624        2.00969
H          2.81958        0.88304        1.92581
H          2.82069       -0.24938        3.29786
H          3.09752       -2.84798        1.69421
H          1.89852       -2.50726        2.95734
H          1.36528       -2.97099        1.32298
H          1.92074        0.06073       -3.28359
H          1.63382        1.58662       -2.39389
H          4.05277        0.72288       -2.30977
H          3.31343        1.00890       -0.72951
H          4.44820       -1.32751       -1.41735
H          3.18929       -1.21544       -0.33710
H         -0.04478       -0.06591       -1.84908
H          1.14812       -1.11875       -1.32747
C          1.92583        0.53894       -2.30189
C          3.28184        0.36695       -1.62110
N          0.90256       -0.13518       -1.46700
N          3.48495       -1.04240       -1.30202
H          0.86444        0.31574       -0.52961
