28
2sa1a1dma_25.log	Energy: -999029.0145581
S          1.53713        0.99527       -0.18528
O          2.87096        1.20339       -0.72711
O          0.50471        0.59356       -1.18932
O          1.64374       -0.29185        0.79774
O          1.00461        2.08238        0.66292
H          2.59157       -0.72353        0.72216
H         -0.65591        2.14369        0.44596
S         -1.36871       -1.94719       -0.05632
O         -2.10633       -0.70890        0.21273
O         -2.09598       -3.17787       -0.15084
O         -0.52410       -1.75137       -1.36676
O         -0.27672       -2.12439        1.07688
H         -0.07900       -0.84065       -1.37059
H          0.39692       -1.39252        1.04312
N         -1.67234        2.01168        0.21763
C         -1.96041        2.66339       -1.07843
C         -2.51141        2.47057        1.34267
H         -1.78051        0.98439        0.11428
H         -1.80961        3.73908       -0.97717
H         -1.26906        2.25648       -1.81603
H         -2.99202        2.45418       -1.36531
H         -2.35532        3.53924        1.49615
H         -3.56028        2.27345        1.11708
H         -2.22174        1.92272        2.23914
N          4.04043       -1.24176        0.48594
H          4.36924       -0.53492       -0.16967
H          4.11386       -2.15288        0.04498
H          4.64448       -1.23082        1.30117
