31
2sa1ma1dma_29.log	Energy: -1023689.3310681
S         -1.70741       -1.90653        0.02068
O         -2.44182       -3.13984        0.01183
O         -2.43519       -0.66980        0.33535
O         -0.51631       -2.05247        1.03911
O         -1.00201       -1.72427       -1.37192
H          0.19706       -1.34281        0.88579
H         -0.53798       -0.81534       -1.41989
S          1.19318        0.85665       -0.32491
O          2.49629        1.12205       -1.00591
O          0.09967        0.57574       -1.31937
O          1.37466       -0.40180        0.53328
O          0.78324        1.99821        0.53696
H          2.98799       -1.09866        0.32412
H         -0.85068        2.11208        0.44481
N          3.91241       -0.83857       -0.08580
H          4.28266       -1.59204       -0.65883
C          4.85177       -0.37322        0.95582
H          5.76193       -0.00102        0.48631
H          4.36522        0.43663        1.49904
H          5.08693       -1.18854        1.63984
H          3.56506       -0.02140       -0.68013
N         -1.89339        2.02349        0.30279
C         -2.26402        2.69703       -0.95882
C         -2.61640        2.50066        1.49652
H         -2.05088        1.00075        0.20442
H         -2.07306        3.76697       -0.86148
H         -1.64478        2.27687       -1.75102
H         -3.32125        2.52230       -1.16542
H         -2.41186        3.56227        1.64394
H         -3.68712        2.34142        1.36009
H         -2.27096        1.93471        2.36147
