25
2sa1a1ma_53.log	Energy: -974357.1101257
S         -2.48622        0.21430       -0.20856
O         -3.87100        0.49584       -0.47558
O         -1.46408        0.54850       -1.18969
O         -2.02885        1.05716        1.09239
O         -2.36620       -1.26363        0.24563
H         -2.67021        0.91305        1.80303
H         -1.40349       -1.65110        0.18815
S          1.09356       -1.30311        0.19459
O          2.41417       -1.90759        0.20657
O         -0.04958       -2.23305        0.02485
O          0.82781       -0.34510        1.29954
O          1.11387       -0.38430       -1.15344
H          1.46910        1.11695        1.06203
H          0.19398       -0.08735       -1.32502
N          1.97241        1.99211        0.74335
H          2.29423        2.49963        1.56412
C          1.08876        2.81980       -0.10800
H          1.60480        3.73546       -0.39788
H          0.83359        2.24064       -0.99363
H          0.17234        3.05293        0.43334
H          2.81445        1.61711        0.20433
N          3.94939        0.61952       -0.66890
H          4.95266        0.76989       -0.63990
H          3.66912        0.58874       -1.64541
H          3.75773       -0.31779       -0.30500
