18
2sa1a_06.log	Energy: -914197.0320648
S          2.19417       -0.32359       -0.10827
O          2.37575       -1.47451       -0.96799
O          2.46325        1.01160       -0.68512
O          0.87661       -0.29347        0.61157
O          3.29937       -0.42126        1.07431
H          3.45689       -1.35728        1.25884
S         -2.36355       -0.19852       -0.12126
O         -1.84414        1.05242       -0.65902
O         -3.59313       -0.74524       -0.62367
O         -1.28039       -1.30654       -0.14863
O         -2.52684        0.13207        1.45226
H         -0.34698       -0.94885        0.12557
H         -2.98950       -0.60072        1.88448
N          0.40099        2.51891       -0.00386
H         -0.44200        1.95724       -0.24499
H          1.26706        1.98657       -0.33375
H          0.34536        3.44043       -0.42961
H          0.44851        2.60326        1.00930
