33
2sa1ma1eda_103.log	Energy: -1058417.8917146
S          0.36294        1.88325        0.30303
O          0.12233        1.24337       -1.02852
O         -0.85660        1.88661        1.12912
O          1.57560        1.39117        0.94537
O          0.69162        3.43283       -0.00508
H         -0.13692        3.89484       -0.19448
S         -2.64143       -0.70072       -0.36267
O         -3.84866       -1.39804       -0.69489
O         -1.42787       -1.44387       -0.03400
O         -2.29989        0.27697       -1.56509
O         -2.96801        0.27835        0.83276
H         -1.40772        0.69722       -1.42123
H         -2.18225        0.85479        1.03274
N          1.55124       -1.50067        1.82334
H          2.51310       -1.75241        2.03198
C          0.59184       -2.28940        2.60498
H          0.69076       -2.13956        3.68606
H         -0.42002       -2.01824        2.29738
H          0.73457       -3.35103        2.38814
H          1.46230       -0.50593        2.02544
H          2.81273       -2.66718       -1.25349
H          2.11737       -1.88413       -2.69527
H          4.30291       -0.92033       -2.11606
H          3.02365        0.29024       -2.00940
H          4.76429       -0.03095       -0.09329
H          3.21090        0.28417        0.29452
H          0.39369       -2.02645       -1.05534
H          1.36020       -1.48045        0.21648
C          2.40106       -1.73562       -1.64971
C          3.42898       -0.61546       -1.53274
N          1.18695       -1.41303       -0.86555
N          3.82312       -0.40159       -0.14385
H          0.84768       -0.45431       -1.04983
