36
2sa1dma1eda_20.log	Energy: -1083094.1524055
S         -0.66144       -1.65121        0.10252
O         -0.75529       -0.76108        1.43588
O         -1.86190       -2.46943        0.12265
O         -0.66556       -0.63929       -1.01865
O          0.62777       -2.37022        0.14404
H          2.11031       -1.55428        0.06496
S          1.28785        1.97053        0.13739
O          2.52202        2.72797        0.14431
O          0.03089        2.72080       -0.00944
O          1.42171        1.04993       -1.22921
O          1.21079        0.94264        1.22228
H          0.63277        0.45164       -1.27503
H         -0.00051       -0.10006        1.43898
N          2.99553       -1.08240       -0.23796
C          3.62920       -1.92440       -1.27470
C          3.85230       -0.77789        0.93167
H          2.65983       -0.20041       -0.66479
H          3.91995       -2.87649       -0.82955
H          2.90295       -2.10099       -2.06795
H          4.50641       -1.41331       -1.67338
H          4.12015       -1.71315        1.42497
H          4.74918       -0.25917        0.59107
H          3.28184       -0.13448        1.60094
H         -4.25515        2.13050       -0.15908
H         -3.50167        1.74670       -1.72859
H         -5.30492        0.06184       -1.02879
H         -3.72024       -0.66095       -1.31557
H         -5.12029       -0.62399        1.14647
H         -3.68781       -1.36941        0.77681
H         -1.76196        2.15476        0.03570
H         -2.49170        0.89600        0.89793
C         -3.65148        1.40098       -0.70393
C         -4.28054        0.00231       -0.64746
N         -2.33612        1.30171       -0.03529
N         -4.21277       -0.50069        0.72005
H         -1.72862        0.60910       -0.52961
