34
2sa1ma1tma_58.log	Energy: -1048331.6026584
S          0.12600        0.11298       -0.00644
O          0.31319       -0.92265        1.01346
O         -0.83459        1.17551        0.37283
O          1.41090        0.67047       -0.49690
O         -0.46382       -0.59621       -1.32212
H         -1.40395       -0.83353       -1.15766
S         -3.96807       -0.09053        0.05947
O         -5.22581       -0.51688        0.61227
O         -3.08760       -1.03476       -0.60455
O         -4.24475        1.02804       -1.06859
O         -3.19867        0.69415        1.16541
H         -4.93789        1.62620       -0.75436
H         -2.23070        0.88209        0.88587
N          3.74941        2.03436        0.69663
H          2.74551        1.87586        0.74891
C          4.04205        2.73523       -0.55596
H          3.58160        3.72873       -0.63621
H          5.12446        2.84825       -0.67486
H          3.66810        2.13536       -1.39040
H          4.00731        2.61184        1.49008
N          3.30941       -1.17943       -0.00654
C          2.68823       -2.40327       -0.57484
H          1.74298       -2.57682       -0.06043
H          2.49752       -2.23726       -1.63551
H          3.37075       -3.24508       -0.43868
C          4.57717       -0.82478       -0.68710
H          4.37932       -0.69199       -1.75155
H          4.93417        0.11018       -0.25283
H          5.30109       -1.62973       -0.53986
C          3.48326       -1.28098        1.46519
H          3.90966       -0.33972        1.81333
H          2.49978       -1.43656        1.90956
H          4.15201       -2.11618        1.68689
H          2.62450       -0.39403       -0.17956
