30
2sa1a1eda_08.log	Energy: -1033768.2928718
S          2.44061       -0.69529       -0.15374
O          2.05641       -1.87543        0.64164
O          1.38441       -0.32600       -1.12336
O          2.96088        0.43832        0.62688
O          3.73623       -1.12438       -1.02041
H          3.51524       -1.91377       -1.53318
S         -1.40389        1.65540       -0.26927
O         -0.87749        1.01596        1.00991
O         -2.15624        0.66479       -1.03842
O         -1.99349        2.95758       -0.03637
O         -0.04121        1.98603       -1.08884
H          0.46273        1.15008       -1.24066
H         -1.63194       -3.51354        0.95928
H         -1.72904       -2.25096        2.21392
H         -3.93695       -2.63284        1.00129
H         -3.34428       -0.97471        0.85802
H         -3.81553       -2.74639       -1.26171
H         -3.17708       -1.22018       -1.33546
H          0.22517       -2.01507        0.61962
H         -0.92834       -1.74258       -0.56351
C         -1.80402       -2.45046        1.14287
C         -3.15067       -2.01125        0.56208
N         -0.74178       -1.69167        0.44594
N         -3.10583       -2.12992       -0.89171
H         -0.77514       -0.67743        0.70058
N          1.33770        2.44535        1.41581
H          1.23474        3.13016        0.66654
H          1.57915        2.89768        2.29243
H          0.41684        1.92211        1.46896
H          2.05816        1.73476        1.13393
