36
2sa1dma1eda_74.log	Energy: -1083088.0705649
S         -2.07853       -1.32649       -0.03721
O         -2.81455       -0.35998        0.76677
O         -1.17487       -0.71891       -1.05134
O         -1.36533       -2.38874        0.70523
O         -3.25108       -2.07878       -0.87547
H         -2.85070       -2.78833       -1.39470
S          2.46216        1.06122       -0.20407
O          1.64491        0.81440        0.98520
O          2.77114       -0.17608       -0.95740
O          1.97825        2.15890       -1.06812
O          3.87940        1.58546        0.40021
H          4.42069        1.90111       -0.33595
N          1.36142       -2.22651        0.23883
C          1.53143       -3.39051       -0.65292
C          2.02031       -2.36017        1.55634
H          1.75221       -1.38666       -0.23917
H          1.09958       -4.27279       -0.17861
H          1.01497       -3.18254       -1.58981
H          2.59434       -3.54379       -0.84423
H          1.57135       -3.19500        2.09617
H          3.08674       -2.53219        1.40376
H          1.87406       -1.42583        2.09732
H          0.34184       -2.08993        0.39060
H         -1.13715        1.37736        1.23266
H         -0.20856        2.87315        1.10262
H         -2.67360        3.11415        1.83690
H         -2.18152        4.15490        0.49416
H         -3.56055        1.58556        0.12311
H         -4.18242        3.08745       -0.17124
H         -0.88984        0.96681       -0.89982
H         -1.46544        2.44827       -1.32638
C         -1.05442        2.32040        0.69497
C         -2.35803        3.11219        0.78435
N         -0.76494        1.99033       -0.73559
N         -3.32977        2.54239       -0.14249
H          0.21045        2.22761       -0.99919
