25
2sa1a1ma_24.log	Energy: -974368.9618406
S          2.31371       -0.11657        0.26096
O          2.08982        1.28709        0.68508
O          3.60315       -0.69782        0.54371
O          1.24306       -1.00508        1.09879
O          1.85686       -0.26760       -1.16796
H          0.42727       -0.47383        1.26036
H          0.96863       -1.47417       -1.43313
S         -2.14449       -0.24733        0.25798
O         -1.16820        0.31644        1.21240
O         -3.52950        0.10115        0.49602
O         -1.65843       -0.09781       -1.14390
O         -2.02687       -1.88597        0.42909
H         -0.45573        1.30272       -1.08897
H         -2.54268       -2.14781        1.20369
N          0.10409        2.15435       -0.89615
H          0.89103        1.86398       -0.24748
C         -0.73799        3.20501       -0.27856
H         -0.12407        4.08090       -0.07060
H         -1.55475        3.46527       -0.95164
H         -1.13717        2.80105        0.65128
H          0.52966        2.45511       -1.77051
N          0.15292       -2.17983       -1.51592
H         -0.69246       -1.60654       -1.67431
H          0.03639       -2.62817       -0.60617
H          0.29613       -2.87099       -2.24552
