30
2sa1a1eda_124.log	Energy: -1033755.2429967
S          2.19566       -0.36963       -0.66748
O          2.05052        0.94255        0.19386
O          1.57920       -1.47378        0.08882
O          1.72913       -0.18676       -2.01957
O          3.74144       -0.52731       -0.66085
H          4.08383       -0.55574        0.32083
S         -1.53584        1.83658        0.15488
O         -2.39464        2.59830        1.04682
O         -2.21202        0.89967       -0.76505
O         -0.82476        2.91977       -0.83143
O         -0.40243        1.14596        0.84137
H         -0.96438        3.79285       -0.44205
H          1.07078        1.10024        0.42747
H         -1.36747       -2.77302        1.26019
H         -1.52992       -1.01936        1.51816
H         -3.77608       -2.16203        1.62853
H         -3.67662       -1.01227        0.28873
H         -3.60529       -3.92685        0.05921
H         -4.43704       -2.83682       -0.83324
H         -0.13365       -1.63142       -0.39153
H         -1.53085       -2.27820       -1.12495
C         -1.79456       -1.84895        0.86068
C         -3.30012       -1.97043        0.65883
N         -1.16678       -1.59107       -0.45870
N         -3.56260       -2.99980       -0.34952
H         -1.45378       -0.63335       -0.77248
N          4.41912       -0.51048        1.85836
H          5.40204       -0.54378        2.10801
H          3.94193       -1.27369        2.32898
H          4.02759        0.36073        2.20599
