37
2sa1dma1tma_19.log	Energy: -1073014.8407213
S         -2.62413       -0.48039       -0.02190
O         -3.12209        0.53464       -0.95503
O         -2.46828       -1.82622       -0.61565
O         -1.44546       -0.06384        0.76121
O         -3.76445       -0.63825        1.13627
H         -4.58810       -0.90696        0.70731
S          2.72728        0.05581       -0.04391
O          3.29064       -1.29197       -0.13864
O          3.55958        1.15646       -0.51837
O          1.31730        0.12774       -0.51916
O          2.49428        0.33087        1.57231
H          3.36386        0.32422        1.99424
N          0.22076       -2.36022       -0.21230
C          0.88847       -3.26738       -1.16837
C          0.46033       -2.69195        1.20980
H          0.56826       -1.38529       -0.36726
H          0.55116       -4.29026       -0.99216
H          0.62503       -2.96209       -2.18126
H          1.96648       -3.18176       -1.02700
H          0.06846       -3.68932        1.41644
H          1.53405       -2.65221        1.39715
H         -0.05662       -1.94754        1.81490
H         -0.80309       -2.31778       -0.38973
N         -0.36582        2.40314       -0.07719
C         -1.57591        2.98289        0.56227
H         -2.45366        2.46706        0.17438
H         -1.50415        2.83389        1.63942
H         -1.61720        4.04866        0.32726
C          0.87396        3.06171        0.40977
H          0.97983        2.86329        1.47616
H          1.73548        2.65633       -0.11933
H          0.78531        4.13525        0.22960
C         -0.46206        2.43767       -1.56176
H          0.41650        1.93463       -1.96385
H         -1.37172        1.91002       -1.85235
H         -0.49845        3.48054       -1.88447
H         -0.33740        1.39907        0.18621
