33
2sa1ma1eda_200.log	Energy: -1058403.7432899
S          0.11700       -0.76033       -0.73305
O          1.32858       -1.04716       -1.52071
O         -1.11435       -1.35433       -1.29116
O          0.29614       -1.04505        0.70863
O         -0.03480        0.83549       -0.87531
H          3.42583       -0.51615        0.93699
H         -0.91633        1.10485       -0.53220
S         -3.65448        0.37803        0.29158
O         -5.02518        0.81413        0.27542
O         -2.56991        1.31591        0.06381
O         -3.32517       -0.24208        1.74173
O         -3.52829       -0.84718       -0.66389
H         -4.08902       -0.75569        2.04140
H         -2.55444       -1.06495       -0.88376
N          2.99835       -1.43896        0.63487
H          2.04057       -1.46866        1.03533
C          3.82463       -2.60853        0.98241
H          3.32549       -3.51824        0.64926
H          4.79506       -2.52521        0.49268
H          3.96552       -2.64532        2.06284
H          2.77336       -1.38074       -0.37312
H          4.06555        2.99796       -0.47774
H          2.38393        2.98866       -0.97884
H          2.51980        2.87363        1.42594
H          1.79642        1.38678        0.79675
H          4.66289        1.54899        1.43775
H          3.54997        1.08423        2.52557
H          4.23560        0.71667       -1.21962
H          2.64699        0.71997       -1.70116
C          3.17332        2.36050       -0.55533
C          2.72770        1.95934        0.85383
N          3.45737        1.29956       -1.50142
N          3.74464        1.12003        1.52825
