33
2sa1ma1eda_171.log	Energy: -1058407.8381657
S          0.06129        2.24873       -0.08073
O         -1.27785        1.89155        0.47124
O          1.10640        2.18954        0.94881
O          0.37393        1.55634       -1.33310
O         -0.05847        3.79976       -0.53826
H         -0.24816        4.33262        0.24594
S         -2.37469       -1.21236       -0.27005
O         -2.86692       -1.46721        1.06789
O         -0.99933       -1.53808       -0.58571
O         -3.26163       -2.04793       -1.31327
O         -2.73636        0.23090       -0.73277
H         -4.18695       -2.01663       -1.03119
H         -2.14942        0.94010       -0.26243
N          1.27717       -0.52612        2.20038
H          2.13205       -0.59624        2.74444
C          0.19044       -1.25595        2.86867
H          0.03708       -0.94248        3.90815
H         -0.74108       -1.10201        2.32300
H          0.40762       -2.32726        2.85522
H          1.06167        0.47035        2.13483
H          3.07980        0.05533       -1.81661
H          3.02913        0.71797       -0.17705
H          5.04063       -0.74722       -0.47748
H          3.93864       -1.42295        0.72668
H          4.22121       -2.38443       -2.02540
H          4.32266       -3.23454       -0.63183
H          0.92088       -0.20809       -0.97789
H          1.61363       -1.74381       -0.93581
C          2.98395       -0.20497       -0.75920
C          4.05221       -1.20632       -0.34070
N          1.64768       -0.79942       -0.54694
N          3.85994       -2.45313       -1.07973
H          1.44376       -0.83744        0.50277
