34
2sa1ma1tma_18.log	Energy: -1048351.9906607
S          1.91368        1.01078       -0.46749
O          1.97611       -0.34507       -1.09837
O          0.74687        1.77686       -0.91373
O          2.14163        0.96563        0.97558
O          3.22508        1.78993       -1.03199
H          3.12517        1.89126       -1.98831
S         -1.41244       -1.61609       -0.57649
O         -2.28497       -2.76998       -0.61372
O         -1.92290       -0.37449       -1.19834
O         -0.86635       -1.29536        0.79033
O         -0.11193       -2.05634       -1.43430
H          0.64019       -1.85686        1.02679
H          0.49744       -1.28887       -1.53160
N          1.65832       -2.14974        0.97371
H          1.67522       -3.11687        0.65564
C          2.37490       -1.94619        2.25141
H          3.40552       -2.28688        2.15125
H          2.36345       -0.87788        2.46364
H          1.87100       -2.50377        3.04098
H          2.03982       -1.55133        0.21205
N         -1.94979        1.67571        0.55417
C         -3.28499        1.18609        0.97984
H         -3.89745        1.02756        0.09310
H         -3.15149        0.23543        1.49607
H         -3.74085        1.92480        1.64287
C         -1.02381        1.79022        1.70893
H         -0.90879        0.79887        2.14531
H         -0.05669        2.13893        1.35296
H         -1.45180        2.49104        2.43019
C         -2.03991        2.93892       -0.21808
H         -1.03754        3.19932       -0.55500
H         -2.68640        2.77101       -1.07987
H         -2.45611        3.71933        0.42311
H         -1.59584        0.94419       -0.10698
