36
2sa1dma1eda_35.log	Energy: -1083093.9923153
S         -0.48854       -1.95950        0.15346
O          0.54543       -2.96909        0.39073
O         -0.57340       -0.95432        1.24775
O          0.08648       -1.16231       -1.12992
O         -1.82599       -2.45808       -0.22308
H         -2.83764       -1.03164       -0.28355
S         -0.11882        2.08465        0.00496
O          1.27044        1.57394        0.03509
O         -0.28504        3.51097       -0.14074
O         -0.93585        1.26564       -0.97197
O         -0.76313        1.71184        1.43810
H         -0.28952       -0.23859       -1.16483
H         -0.66630        0.73474        1.53152
N         -3.21949       -0.05819       -0.24555
C         -3.74051        0.19353        1.11705
C         -4.20266        0.14885       -1.32913
H         -2.39207        0.55883       -0.42773
H         -4.65112       -0.38917        1.26413
H         -2.98047       -0.11808        1.83206
H         -3.94626        1.25796        1.23272
H         -5.02443       -0.55879       -1.21138
H         -4.57848        1.17173       -1.28167
H         -3.70695       -0.01505       -2.28577
H          3.83171       -1.79999       -0.81432
H          2.55799       -0.82556       -1.58333
H          4.80822        0.33637       -1.69477
H          3.61369        1.25595       -0.76716
H          5.87320       -0.23167        0.33487
H          5.29903        1.24596        0.74489
H          1.97091       -1.70640        0.64024
H          3.19140       -0.69055        1.26507
C          3.28075       -0.85688       -0.76809
C          4.21911        0.34509       -0.76945
N          2.51833       -0.83862        0.50545
N          5.02780        0.31573        0.45152
H          1.86679       -0.02312        0.48439
