33
2sa1ma1eda_95.log	Energy: -1058419.5417256
S          0.94190       -1.75177       -0.07897
O          0.25276       -2.99631       -0.40565
O          1.09959       -0.83192       -1.24181
O          0.20663       -1.01761        1.02922
O          2.36250       -2.07744        0.46267
H          2.88857       -1.15410        0.60588
S         -0.10438        2.11589        0.04425
O         -0.07154        3.54376        0.18571
O         -1.38324        1.42270       -0.09553
O          0.81706        1.73174       -1.17590
O          0.65462        1.47457        1.27985
H          0.89150        0.72567       -1.25364
H          0.48501        0.46875        1.27624
N          3.54848        0.19145        0.69190
H          2.83304        0.89195        0.88777
C          4.20199        0.47477       -0.59794
H          4.64375        1.47488       -0.63799
H          4.98069       -0.27051       -0.77183
H          3.45758        0.37865       -1.38938
H          4.21848        0.23841        1.45425
H         -4.14285       -2.19062       -0.12153
H         -3.30856       -1.97585        1.43966
H         -5.07299       -0.18168        0.97834
H         -3.45278        0.48043        1.21471
H         -4.99936        0.63293       -1.15915
H         -3.53517        1.32959       -0.82311
H         -1.78464       -2.33394       -0.54274
H         -2.35597       -0.83738       -1.08573
C         -3.48873       -1.53498        0.45768
C         -4.07135       -0.12074        0.54164
N         -2.19771       -1.43646       -0.26316
N         -4.07159        0.46992       -0.79319
H         -1.45936       -0.98784        0.31829
