27
2sa1tma_31.log	Energy: -988152.5639471
S          0.56809       -2.14986       -0.07959
O          1.82961       -2.83162       -0.08053
O          0.25040       -1.14632       -1.08065
O         -0.62162       -3.21560       -0.21856
O          0.35441       -1.55259        1.35790
H         -0.37996       -4.03013        0.24764
H         -0.39281       -0.89687        1.36252
S         -2.18166        1.00354        0.11985
O         -2.74404        2.30445        0.33862
O         -1.61244        0.23383        1.21223
O         -3.29465        0.02576       -0.49318
O         -1.13350        1.13507       -1.04387
H         -3.86758        0.52555       -1.09411
H         -0.58221        0.31205       -1.11527
N          2.67769        2.20423        0.01478
C          3.77700        1.33397        0.38968
H          4.61332        1.47523       -0.30137
H          4.12158        1.58291        1.39782
H          3.49645        0.26214        0.37549
C          1.57664        2.09044        0.95084
H          1.91366        2.35405        1.95766
H          0.77390        2.77764        0.66791
H          1.15798        1.06592        0.99292
C          2.24542        1.94438       -1.34620
H          1.43351        2.62666       -1.61431
H          3.07609        2.11405       -2.03782
H          1.88962        0.90559       -1.48821
