31
2sa1ma1dma_55.log	Energy: -1023681.0196738
S          1.51926       -1.39194        0.21980
O          2.54350       -0.36198       -0.00455
O          0.65466       -1.14830        1.38871
O          0.75435       -1.69751       -1.01329
O          2.29695       -2.74206        0.63095
H          2.97324       -2.92772       -0.03536
S         -2.31587       -0.34247       -0.21199
O         -3.73828       -0.20836       -0.30864
O         -1.47164        0.83033       -0.45708
O         -1.97592       -0.90356        1.22228
O         -1.86434       -1.49083       -1.19361
H         -0.99086       -1.02009        1.33640
H         -0.87324       -1.62032       -1.15651
N          0.88384        1.91305        1.89833
H          0.84289        0.89678        1.93929
C         -0.37522        2.48583        2.38371
H         -0.62966        2.20900        3.41561
H         -0.32613        3.57839        2.32909
H         -1.18811        2.15739        1.73149
H          1.65132        2.18505        2.50461
N          1.04228        1.75760       -1.12894
C          1.07122        1.22951       -2.51327
C          1.19954        3.22381       -1.02504
H          0.14475        1.47447       -0.69724
H          2.02405        1.49065       -2.97517
H          0.96091        0.14627       -2.46565
H          0.24503        1.66879       -3.07316
H          2.14790        3.51391       -1.47956
H          0.37237        3.70527       -1.54825
H          1.18526        3.47300        0.03516
H          1.75566        1.26846       -0.56211
