36
2sa1dma1eda_182.log	Energy: -1083070.4676819
S          0.42130       -2.05190        0.53973
O          0.62928       -1.05052        1.59074
O         -1.01011       -2.43067        0.37993
O          1.10768       -1.75283       -0.72196
O          1.13675       -3.42414        1.03133
H          0.63093       -3.77550        1.77662
S         -2.54021        0.34898       -0.94254
O         -3.61257        0.93371       -1.70516
O         -1.17071        0.77741       -1.12824
O         -2.79927        0.64762        0.63410
O         -2.67816       -1.19531       -1.02944
H         -3.72177        0.44857        0.84806
H         -1.95246       -1.69080       -0.48345
N          0.07415        1.93422        1.53674
C         -0.67229        3.16673        1.30612
C          0.86365        1.95526        2.76512
H         -0.56689        1.14409        1.57157
H          0.03101        3.99858        1.19150
H         -1.25053        3.07023        0.38526
H         -1.35744        3.40976        2.13130
H          1.64640        2.71767        2.68263
H          0.25847        2.18754        3.65408
H          1.32966        0.97748        2.90273
H          3.33941        1.70777        0.32821
H          2.92618        0.01266        0.67643
H          4.84204        0.14337       -0.93854
H          3.41765       -0.61500       -1.65972
H          4.39881        2.08225       -2.22023
H          3.88371        0.93116       -3.26217
H          0.96668        1.43257        0.21554
H          1.60027        1.60230       -1.39731
C          2.96368        0.77472       -0.10374
C          3.81781        0.33210       -1.28553
N          1.58053        1.00855       -0.56520
N          3.72509        1.33524       -2.34757
H          1.16166        0.10104       -0.82769
