30
2sa1a1eda_65.log	Energy: -1033762.9226772
S         -1.89012       -1.46866       -0.05340
O         -2.15488       -0.23310       -0.82639
O         -1.34110       -2.56194       -0.88353
O         -1.12974       -1.22412        1.17713
O         -3.33096       -1.98778        0.47593
H         -3.86886       -2.23131       -0.28993
S          2.69825        0.23135       -0.13510
O          2.97816       -1.01461       -0.88237
O          2.17190        1.32062       -0.97651
O          1.91414       -0.00147        1.09038
O          4.12916        0.74435        0.43249
H          4.70664        0.92815       -0.32116
H         -1.43834        2.63121        1.70517
H         -0.05386        3.50875        1.00196
H         -2.03125        4.48193        0.06812
H         -1.31565        3.50675       -1.21554
H         -3.78361        3.22710       -0.83848
H         -3.01676        1.79187       -0.64043
H          0.15070        1.01196        1.01953
H         -1.04575        0.93967       -0.12150
C         -0.89130        2.84250        0.78469
C         -1.83525        3.45151       -0.24321
N         -0.32102        1.56275        0.28918
N         -3.10257        2.73627       -0.27200
H          0.42022        1.70635       -0.41841
N          1.16639       -2.72840        0.25665
H          0.88311       -2.07621        1.00047
H          1.92092       -2.24743       -0.28589
H          1.49577       -3.60290        0.65425
H          0.31309       -2.87288       -0.32488
