28
2sa1a1dma_10.log	Energy: -999031.6698268
S          2.67705       -0.38416        0.12485
O          2.87599        0.68315        1.10021
O          2.35454       -1.70679        0.70644
O          1.74289       -0.03161       -0.97543
O          4.08150       -0.57371       -0.67217
H          4.78387       -0.68625       -0.01718
S         -2.67700       -0.38417        0.12492
O         -2.35503       -1.70679        0.70677
O         -2.87568        0.68343        1.10002
O         -1.74257       -0.03207       -0.97531
O         -4.08140       -0.57337       -0.67230
H         -4.78385       -0.68602       -0.01742
N         -0.00004        1.95516       -0.25935
C          0.00013        2.13523        1.21221
C         -0.00011        3.21425       -1.02863
H          0.81172        1.36128       -0.53384
H         -0.90339        2.67077        1.50283
H          0.00008        1.15301        1.68190
H          0.90382        2.67059        1.50264
H         -0.89371        3.78742       -0.77771
H          0.89362        3.78735       -0.77799
H         -0.00029        2.97781       -2.09271
H         -0.81184        1.36128       -0.53367
N         -0.00022       -2.35793       -0.52280
H         -0.00098       -1.53306       -1.13335
H          0.87080       -2.28905        0.05365
H         -0.87086       -2.28982        0.05423
H         -0.00003       -3.20723       -1.07995
