30
2sa1a1eda_196.log	Energy: -1033731.9419009
S         -1.64540       -0.83278        0.12954
O         -2.31596        0.24610        0.83933
O         -0.62876       -1.60355        0.83917
O         -2.70919       -1.81387       -0.41861
O         -1.01716       -0.26761       -1.20266
H         -3.68550       -1.40554       -0.32591
H         -0.02967       -0.21366       -1.13251
S          2.62633       -0.63901       -0.14588
O          1.65687       -0.47755       -1.21321
O          3.44824        0.45883        0.29992
O          1.96145       -1.33316        1.09177
O          3.60873       -1.79548       -0.66631
H          0.96531       -1.38259        0.99709
H          4.46634       -1.69298       -0.22941
H          0.86983        3.59215        1.18127
H          1.98918        2.64505        0.17566
H          0.40855        3.94802       -1.17206
H          0.24467        2.21014       -1.46306
H         -1.86832        3.52225       -1.11436
H         -1.73054        2.25176       -0.10208
H          1.22367        1.26605        1.89187
H         -0.34395        1.55441        1.57096
C          0.94681        2.73383        0.49706
C          0.07684        3.00651       -0.72100
N          0.57279        1.46819        1.13901
N         -1.32782        3.15453       -0.33961
N         -5.02150       -0.74210       -0.10571
H         -5.69843       -1.32406        0.37795
H         -5.45368       -0.38783       -0.95343
H         -4.79224        0.04954        0.49189
