30
2sa1a1eda_45.log	Energy: -1033764.2499162
S         -2.84979       -0.07410       -0.15557
O         -1.93235       -0.24391        1.01652
O         -2.63821        1.19220       -0.85522
O         -2.88915       -1.27578       -0.99629
O         -4.29528        0.02992        0.58552
H         -4.96144        0.22328       -0.08815
S          2.30240       -1.22139       -0.02849
O          2.91937       -0.25426        0.87797
O          1.91690       -2.50153        0.61336
O          1.20480       -0.67320       -0.85510
O          3.41960       -1.60344       -1.14599
H          4.20182       -1.93766       -0.68621
H          0.47250        2.98547        1.73316
H          1.57868        1.57953        1.69347
H          2.70908        3.61483        0.79896
H          2.56000        2.34120       -0.41031
H          0.98433        4.80699       -0.31652
H          1.71543        4.09504       -1.59725
H         -0.68879        1.10027        0.77638
H         -0.37407        2.21144       -0.42739
C          1.03586        2.30621        1.08755
C          1.98975        3.06809        0.17585
N          0.06222        1.57323        0.24582
N          1.21918        3.91349       -0.73401
H          0.53336        0.80950       -0.28834
N         -0.78990       -2.65597        0.33601
H         -1.07369       -2.52326       -0.63828
H         -1.23639       -3.48991        0.70686
H          0.25553       -2.70277        0.42649
H         -1.15750       -1.80706        0.82085
