30
2sa1a1eda_02.log	Energy: -1033768.4175517
S          1.00479       -1.93147       -0.34299
O          0.67247       -1.36625        1.01167
O          1.68728       -0.90194       -1.15771
O          1.60852       -3.24511       -0.31298
O         -0.45161       -2.16445       -1.02512
H         -0.87430       -1.28662       -1.18467
S         -2.27669        1.06384       -0.10650
O         -1.41893        2.18779        0.31680
O         -1.64075        0.26142       -1.17161
O         -2.84630        0.27054        0.99256
O         -3.60120        1.72629       -0.76031
H         -3.32828        2.30971       -1.48138
H          1.79477        2.49201        1.55750
H          1.60857        0.71328        1.56597
H          4.03994        1.36942        1.62490
H          3.61334        0.45412        0.17266
H          4.14833        3.32624        0.29654
H          4.67546        2.21957       -0.78754
H          0.25453        1.90077       -0.13168
H          1.73267        2.30700       -0.87832
C          1.99193        1.56802        1.00713
C          3.47359        1.40987        0.68621
N          1.24857        1.63436       -0.27557
N          3.88649        2.48973       -0.21338
H          1.29315        0.69206       -0.73381
N         -1.77292       -2.14331        1.58087
H         -2.01894       -2.52545        2.48897
H         -1.95950       -2.81843        0.84014
H         -2.29828       -1.25695        1.38372
H         -0.73521       -1.89365        1.50882
