31
2sa1ma1dma_33.log	Energy: -1023690.2767060
S          1.55306       -1.18093       -0.68803
O          2.54567       -2.14426       -1.10075
O          0.21233       -1.32214       -1.32097
O          1.40481       -1.04704        0.79686
O          2.10286        0.26225       -1.18533
H          1.41801        0.46133        1.39954
H          1.35460        0.90159       -1.22500
S         -1.32208        1.63315       -0.40382
O          0.08498        2.06191       -0.69135
O         -2.32870        2.65805       -0.54004
O         -1.66772        0.51400       -1.49345
O         -1.32830        0.91617        0.91776
H         -0.92737       -0.15603       -1.51749
H         -1.80382       -0.60475        0.93438
N          1.49677        1.49985        1.58997
H          0.97234        1.93154        0.79743
C          2.91654        1.91465        1.61132
H          2.98594        2.99615        1.72743
H          3.42760        1.41410        2.43349
H          3.36239        1.60808        0.66526
H          0.99702        1.72209        2.44754
N         -2.19876       -1.57639        1.12293
C         -1.25585       -2.30231        2.01141
C         -2.48833       -2.28559       -0.15149
H         -3.07481       -1.40670        1.61638
H         -0.27694       -2.31159        1.52949
H         -1.18257       -1.76278        2.95610
H         -1.62613       -3.31425        2.18311
H         -1.54069       -2.44799       -0.66557
H         -2.98202       -3.23278        0.07204
H         -3.12697       -1.64990       -0.76431
