31
2sa1ma1dma_23.log	Energy: -1023692.9862605
S          2.17076       -0.23902       -0.71801
O          3.53472        0.05338       -1.08864
O          1.74218        0.33052        0.60760
O          1.26058        0.53417       -1.80267
O          1.75809       -1.66758       -0.77548
H          0.77396       -2.01349        0.44444
S         -2.28551       -0.34969       -0.42033
O         -3.70912       -0.14755       -0.58573
O         -1.75087       -0.08467        0.94851
O         -1.99883       -1.96938       -0.51968
O         -1.43410        0.26388       -1.45844
H         -2.29124       -2.27775       -1.38829
H          0.31873        0.25815       -1.72071
N          0.18054       -2.12226        1.32017
H         -0.46911       -1.31393        1.32421
C          1.04565       -2.15423        2.51830
H          0.43324       -2.20620        3.41900
H          1.70428       -3.02070        2.46248
H          1.64433       -1.24364        2.50962
H         -0.39636       -2.95463        1.21751
N         -0.10877        2.19851        0.79048
C          0.11795        2.84804        2.09651
C         -0.30935        3.13773       -0.33522
H          0.70621        1.54890        0.59850
H         -0.74933        3.45490        2.36173
H          0.27347        2.07513        2.84933
H          1.00743        3.47616        2.03263
H         -1.12744        3.81907       -0.09519
H          0.61364        3.69592       -0.49525
H         -0.55314        2.55992       -1.22529
H         -0.90167        1.53609        0.86293
