25
2sa1a1ma_68.log	Energy: -974339.6815585
S          1.72190       -0.36394       -0.13788
O          2.33580        0.82100       -0.71303
O          0.74636       -1.10164       -0.93572
O          2.83540       -1.35159        0.29625
O          1.06382        0.00467        1.24898
H          3.77847       -0.87708        0.29103
H          0.07479       -0.03271        1.19055
S         -2.53989       -0.36307        0.09353
O         -3.36628        0.79051       -0.16776
O         -1.59593       -0.38368        1.19616
O         -3.52313       -1.59793        0.38303
O         -1.84485       -0.83512       -1.22754
H         -4.37747       -1.41556       -0.03349
H         -0.84833       -0.85935       -1.12820
N         -0.53948        1.94975       -0.67734
H          0.34295        2.06781       -1.16530
C         -0.61925        2.85761        0.46597
H         -0.53144        3.92316        0.20969
H         -1.57486        2.70539        0.97448
H          0.17835        2.61093        1.17226
H         -1.28635        2.14381       -1.33608
N          5.07854       -0.08579        0.19730
H          5.81425       -0.54660       -0.32875
H          5.45843        0.19983        1.09437
H          4.79193        0.74929       -0.30952
