39
2sa1eda1tma_45.log	Energy: -1107750.3319777
S         -0.98835        1.54935       -0.92521
O         -0.46417        1.28087        0.45868
O         -1.64186        0.31028       -1.43492
O         -1.75964        2.76583       -1.04652
O          0.31977        1.75938       -1.83347
H          0.82529        0.91011       -1.81790
S          1.20202       -1.81926       -0.67949
O          1.07200       -1.70694        0.80017
O          1.65106       -0.49202       -1.22234
O          1.96120       -2.95887       -1.14169
O         -0.29710       -2.01405       -1.24712
H         -0.71596       -1.13830       -1.45258
H         -3.10052       -1.76675        2.52972
H         -2.41980       -0.17810        2.97897
H         -4.70402       -0.05341        1.81473
H         -3.43742        0.88362        1.02545
H         -4.90206       -1.18449       -0.13619
H         -3.56782       -0.44157       -0.77739
H         -0.79402       -1.66668        1.69467
H         -1.87421       -1.57317        0.44926
C         -2.72432       -0.81558        2.14599
C         -3.76999       -0.13622        1.25176
N         -1.54472       -1.09431        1.29943
N         -3.94171       -0.92297        0.03590
H         -1.08912       -0.20048        0.98530
N          2.44425        0.95967        1.00702
C          2.58251        2.33642        0.46884
H          2.94685        2.27272       -0.55614
H          1.60048        2.80675        0.47401
H          3.28803        2.89119        1.09105
C          1.86516        0.95083        2.37135
H          0.91664        1.48499        2.33886
H          1.70318       -0.08830        2.65667
H          2.56475        1.43655        3.05531
C          3.72316        0.20592        0.94663
H          3.54084       -0.80571        1.30883
H          4.04749        0.16017       -0.09237
H          4.46497        0.71515        1.56531
H          1.79383        0.45334        0.37330
