39
2sa1eda1tma_62.log	Energy: -1107745.0900021
S          2.77806        0.69193       -0.14827
O          3.26466       -0.30921       -1.10188
O          2.54273        2.03222       -0.68629
O          1.64735        0.19316        0.68374
O          3.95050        0.84392        0.98724
H          4.73493        1.20362        0.55182
S         -2.58625       -0.80904       -0.12214
O         -3.09665        0.49548       -0.55328
O         -2.41073       -1.80459       -1.18448
O         -1.40786       -0.69467        0.77636
O         -3.70417       -1.43234        0.90068
H         -4.53432       -1.51545        0.41257
H          0.30058        3.00264       -0.84630
H         -0.85455        1.73056       -1.29933
H         -1.91741        4.00022       -1.46986
H         -2.71915        2.95255       -0.29290
H         -0.90243        5.16796        0.35005
H         -2.40701        4.88055        0.92642
H          0.46336        1.41451        0.82859
H         -0.55980        2.64405        1.45595
C         -0.64394        2.52275       -0.58087
C         -1.80016        3.50948       -0.49543
N         -0.45628        1.90249        0.75582
N         -1.55304        4.43520        0.61367
H         -1.14069        1.14585        0.91761
N          0.72575       -2.54440        0.13001
C          2.05194       -2.80134        0.75184
H          2.77835       -2.10817        0.33221
H          1.96800       -2.65055        1.82784
H          2.33594       -3.83303        0.53337
C         -0.29086       -3.51976        0.60688
H         -0.42828       -3.38568        1.67951
H         -1.22847       -3.33102        0.08613
H          0.07316       -4.52653        0.39141
C          0.81058       -2.52560       -1.35840
H         -0.17730       -2.27537       -1.74774
H          1.55450       -1.78175       -1.64701
H          1.11541       -3.51856       -1.69672
H          0.40930       -1.60071        0.41564
