26
2sa1eda_79.log	Energy: -998250.5268317
S         -0.35998        0.70280        0.10795
O         -1.62336        1.41370        0.40090
O          0.51101        0.55654        1.29435
O         -0.58879       -0.57710       -0.59795
O          0.39130        1.68479       -0.90497
H         -2.40331       -0.77392       -1.07869
H          1.32023        1.38116       -1.01219
S          3.58574       -0.27831       -0.04665
O          2.97034        0.70613       -0.91715
O          5.01223       -0.31987        0.13675
O          2.92091       -0.25185        1.36359
O          3.10539       -1.68885       -0.66030
H          1.94238        0.04132        1.32126
H          3.62631       -2.39696       -0.25546
H         -4.02345       -2.10160        0.07781
H         -3.18039       -1.03490        1.22246
H         -5.67896       -0.94863        1.55744
H         -5.02192        0.61704        1.07931
H         -6.53279       -1.19936       -0.64591
H         -6.71527        0.41135       -0.43377
H         -3.97729       -0.18353       -1.46892
H         -2.88465        0.58942       -0.38925
C         -3.88183       -1.06279        0.38718
C         -5.21248       -0.40205        0.72844
N         -3.27066       -0.32278       -0.74184
N         -6.03069       -0.33324       -0.48250
