37
2sa1dma1tma_26.log	Energy: -1073012.7310094
S          0.57089       -1.99614       -0.30971
O         -0.29848       -2.79812       -1.16272
O          1.90308       -2.51191       -0.00705
O          0.93060       -0.62661       -1.16543
O         -0.14126       -1.47474        0.89745
H         -1.68087       -1.15834        0.57473
S         -1.07120        2.18385       -0.29000
O         -1.53077        3.42403       -0.89338
O          0.19765        2.24540        0.44059
O         -2.23134        1.83956        0.87480
O         -1.18805        0.96920       -1.13328
H         -2.62715        2.67945        1.13988
H          0.12653       -0.04089       -1.22094
N         -2.72070       -0.96751        0.47323
C         -3.40140       -1.58569        1.62758
C         -3.18803       -1.45260       -0.84604
H         -2.79811        0.05697        0.52050
H         -3.22526       -2.66165        1.60237
H         -2.98154       -1.17044        2.54380
H         -4.47275       -1.38248        1.57846
H         -2.92751       -2.50610       -0.94406
H         -4.26726       -1.30526       -0.92196
H         -2.67204       -0.87942       -1.61437
N          2.98326        0.51622        0.25491
C          4.15588       -0.35061       -0.02716
H          3.87365       -1.38274        0.17937
H          4.41823       -0.24977       -1.08075
H          4.99002       -0.02912        0.60058
C          3.22823        1.92973       -0.12985
H          3.49428        1.96306       -1.18718
H          2.31178        2.49445        0.04148
H          4.05072        2.32039        0.47345
C          2.53267        0.39598        1.66924
H          1.61153        0.96870        1.77664
H          2.33726       -0.65659        1.87346
H          3.31967        0.78274        2.32088
H          2.19018        0.15724       -0.32836
