39
2sa1eda1tma_54.log	Energy: -1107746.0147063
S          2.43427       -0.75729        0.04499
O          3.09302        0.53551        0.25210
O          2.31685       -1.60983        1.22969
O          1.16410       -0.65200       -0.72659
O          3.36703       -1.57891       -1.02234
H          4.25759       -1.63579       -0.65051
S         -2.84528        0.78766       -0.08880
O         -2.48098        2.07037       -0.73540
O         -3.76158       -0.04653       -0.86545
O         -1.66611        0.08416        0.44910
O         -3.65024        1.19551        1.27880
H         -4.51113        1.54735        1.01603
H          2.07262        2.12035       -1.34228
H          0.82534        3.23847       -1.94716
H          2.69738        4.31523       -0.55661
H          1.06211        4.66409        0.02650
H          2.75575        2.54066        1.16722
H          2.25796        3.93488        1.91687
H          0.35817        0.97731       -0.54373
H          0.42932        2.09866        0.66540
C          1.26822        2.79816       -1.05290
C          1.80488        3.86823       -0.09786
N          0.24856        1.98607       -0.34458
N          2.03063        3.25386        1.20433
H         -0.74393        2.23280       -0.54061
N         -0.62339       -2.64922        0.02916
C         -1.85557       -2.79074       -0.78932
H         -2.55476       -1.99422       -0.53830
H         -1.58343       -2.71068       -1.84227
H         -2.29375       -3.77147       -0.59077
C          0.38482       -3.68109       -0.32708
H          0.64941       -3.56109       -1.37765
H          1.26937       -3.52890        0.29067
H         -0.04877       -4.66818       -0.15360
C         -0.91261       -2.65111        1.48849
H          0.02601       -2.47138        2.01386
H         -1.61523       -1.84411        1.69059
H         -1.33173       -3.62284        1.75935
H         -0.18796       -1.72903       -0.19168
