36
2sa1dma1eda_206.log	Energy: -1083070.4148707
S          2.24760        1.43912        0.33424
O          1.89781        1.75809       -1.03963
O          1.26087        1.84786        1.35328
O          2.65055        0.00802        0.53955
O          3.59499        2.28612        0.61740
H          3.90451        2.08665        1.51176
S          0.76174       -2.31887       -0.32686
O          0.39442       -3.70116       -0.41158
O         -0.14120       -1.31302       -0.88144
O          1.02076       -1.96175        1.20025
O          2.18956       -2.13810       -0.98484
H          1.57445       -1.13490        1.23645
H          2.54673       -1.24924       -0.73196
N         -3.09672        0.26096        1.71760
C         -2.81389       -1.15816        1.48429
C         -4.50223        0.59189        1.49363
H         -2.84439        0.49665        2.67285
H         -2.96698       -1.37618        0.42339
H         -1.77003       -1.37253        1.72695
H         -3.45817       -1.82261        2.07755
H         -4.73205        0.41290        0.44021
H         -5.18469       -0.01013        2.11213
H         -4.67217        1.65006        1.70946
H         -1.95584        2.87722       -0.97177
H         -0.37877        2.36298       -1.61911
H         -2.12500        1.77200       -3.23336
H         -1.40267        0.31404       -2.55268
H         -4.05370        1.36296       -1.92736
H         -3.61303       -0.15525       -2.33827
H         -0.39589        1.64708        0.57282
H         -1.96749        0.99357        0.53029
C         -1.34844        2.01358       -1.25812
C         -2.04203        1.17053       -2.31756
N         -1.10258        1.20541       -0.03906
N         -3.32270        0.66694       -1.82203
H         -0.70299        0.29197       -0.31030
