34
2sa1ma1tma_32.log	Energy: -1048340.3060642
S         -1.74653       -1.65950        0.03963
O         -0.55039       -2.19431        0.73276
O         -2.81898       -1.16426        0.89568
O         -1.37805       -0.71513       -1.04163
O         -2.39844       -2.95779       -0.68959
H         -1.67739       -3.48179       -1.06284
S          1.71719        0.59657        0.61987
O          0.45013        1.30407        0.71031
O          2.89976        1.17856        1.21991
O          1.58242       -0.83966        1.25368
O          1.97136        0.31964       -0.90145
H          0.71718       -1.30590        1.01197
H          2.88458       -0.19026       -0.99244
N          4.25668       -0.90938       -0.91783
H          4.21734       -1.42626       -0.04230
C          5.34070        0.08539       -0.87659
H          6.32459       -0.36241       -0.70086
H          5.36210        0.62504       -1.82574
H          5.11879        0.79930       -0.08151
H          4.40710       -1.58873       -1.65738
N         -2.28922        1.74317       -0.34020
C         -1.56754        2.83553       -1.03617
H         -0.59852        2.96300       -0.55606
H         -1.42367        2.54954       -2.07854
H         -2.16041        3.75105       -0.97442
C         -3.59152        1.43449       -0.98321
H         -3.41209        1.17229       -2.02561
H         -4.03072        0.58117       -0.46614
H         -4.24004        2.31082       -0.91468
C         -2.45739        2.01684        1.11199
H         -2.90021        1.13195        1.56884
H         -1.47552        2.19969        1.54427
H         -3.10669        2.88797        1.22782
H         -1.71732        0.87142       -0.45357
