33
2sa1ma1eda_104.log	Energy: -1058417.1093985
S          1.06427        2.01270       -0.11201
O          1.18172        1.20552       -1.34703
O         -0.15765        2.80900       -0.02974
O          1.34349        1.20217        1.10078
O          2.22226        3.13549       -0.18083
H          3.08328        2.69782       -0.23419
S          1.48941       -2.03631       -0.18793
O          0.05617       -1.78056       -0.05925
O          1.98018       -3.38286       -0.22475
O          2.00978       -1.29727       -1.48388
O          2.22925       -1.28620        0.99401
H          1.69769       -0.34818       -1.48911
H          1.90964       -0.34175        1.06654
N         -1.25828       -0.13170        2.01804
H         -0.82516       -0.94890        1.58708
C         -2.02440       -0.49917        3.21136
H         -1.41935       -0.99785        3.97716
H         -2.46843        0.39673        3.65265
H         -2.83744       -1.17273        2.92711
H         -0.48475        0.49100        2.24640
H         -2.27762        0.75478       -2.24333
H         -1.09911       -0.17470       -1.29012
H         -2.95728       -1.64733       -2.07319
H         -2.88619       -1.54753       -0.31690
H         -4.84486       -0.19055       -2.02222
H         -5.10760       -1.11933       -0.70651
H         -1.76780        1.93785       -0.24052
H         -3.34569        1.29747       -0.10948
C         -2.12835        0.18214       -1.32382
C         -3.11208       -0.97413       -1.22134
N         -2.34641        1.08710       -0.16813
N         -4.47308       -0.44174       -1.11184
H         -2.01642        0.60009        0.74952
