30
2sa1a1eda_162.log	Energy: -1033752.9804297
S         -0.94440        1.75432        0.00258
O         -0.95882        1.09508       -1.31284
O         -1.93585        1.25851        0.95569
O          0.43174        1.81022        0.57883
O         -1.38104        3.29246       -0.23879
H         -0.84244        3.65816       -0.95410
S          2.82260       -0.50941       -0.27616
O          4.16674       -0.77319       -0.71577
O          1.72440       -1.35381       -0.69508
O          2.76954       -0.62306        1.34695
O          2.52246        0.99338       -0.52099
H          3.53858       -0.16782        1.71942
H          1.61439        1.30361       -0.12688
H         -2.45348       -2.75267       -1.67728
H         -1.86999       -3.52976       -0.18023
H         -4.20049       -2.75466        0.05492
H         -3.14085       -1.91320        1.18602
H         -4.83215       -0.64600       -0.43222
H         -3.39416        0.04182       -0.04401
H         -0.21481       -1.97966       -1.03040
H         -1.27873       -0.72686       -1.00528
C         -2.19844       -2.58793       -0.62840
C         -3.39810       -2.01370        0.12040
N         -1.06069       -1.64147       -0.56950
N         -3.82935       -0.76481       -0.48670
H         -0.77928       -1.45488        0.44457
N         -0.33990       -1.06077        2.07443
H          0.65050       -0.82541        2.07720
H         -0.51216       -1.69039        2.85095
H         -0.86075       -0.19849        2.23103
