25
2sa1a1ma_26.log	Energy: -974368.7958016
S         -2.26676        0.00416        0.28333
O         -1.26253        0.11039        1.36124
O         -3.60714        0.43338        0.62153
O         -1.71160        0.52402       -1.00026
O         -2.35768       -1.60632       -0.07363
H         -0.34963        1.65481       -0.42940
H         -2.94835       -2.02604        0.56630
S          2.15795       -0.52835        0.32450
O          2.11097        0.66076        1.20809
O          3.33685       -1.35738        0.38933
O          0.92995       -1.47884        0.80423
O          1.75950       -0.11608       -1.06981
H          0.19386       -0.91783        1.14511
H          0.72345       -1.03189       -1.73698
N          0.30502        2.28442        0.06970
H         -0.24870        2.83375        0.72447
C          1.08610        3.12152       -0.86800
H          1.75179        3.76825       -0.29733
H          1.67636        2.44926       -1.48976
H          0.41251        3.71986       -1.48146
H          0.96258        1.66718        0.62485
N         -0.17803       -1.53977       -2.04008
H         -0.38434       -2.25076       -1.33702
H         -0.11254       -1.95131       -2.96571
H         -0.92814       -0.82926       -1.97327
