36
2sa1dma1eda_73.log	Energy: -1083091.0012099
S         -0.39852        1.95888       -0.29331
O         -1.21814        1.87505        0.90196
O          1.06421        2.03365       -0.10736
O         -0.75872        0.95263       -1.34460
O         -0.81504        3.39191       -0.94216
H         -0.25768        3.54668       -1.71648
S          0.96060       -1.89578       -0.35685
O          2.30849       -2.42411       -0.09771
O         -0.05214       -2.87035       -0.80596
O          0.45645       -1.02831        0.73003
O          1.23566       -0.88834       -1.60531
H          2.15804        0.70430        0.28927
H          0.51621       -0.21448       -1.63751
N          3.02873        0.25275        0.64028
C          3.01935        0.37505        2.11386
C          4.18231        0.87871       -0.03486
H          2.96696       -0.75269        0.38305
H          2.99380        1.43285        2.37830
H          2.11986       -0.12256        2.47521
H          3.91192       -0.09987        2.52377
H          4.17848        1.94874        0.17619
H          5.10608        0.42492        0.32710
H          4.07954        0.71337       -1.10708
H         -2.86954       -2.02751        1.41857
H         -1.76267       -0.63472        1.52481
H         -4.12829        0.00777        2.14722
H         -3.52292        0.88584        0.74406
H         -5.45732       -1.31806        0.68859
H         -5.53137        0.13272       -0.06105
H         -1.59325       -1.98212       -0.56468
H         -3.14983       -1.37212       -0.93453
C         -2.63708       -1.03780        1.01580
C         -3.83497       -0.10159        1.09579
N         -2.27986       -1.21181       -0.41605
N         -4.90156       -0.60658        0.22587
H         -1.82615       -0.34647       -0.77768
