33
2sa1ma1eda_79.log	Energy: -1058426.3236974
S          0.54666       -2.05904       -0.22333
O          0.20375       -1.04402        0.79992
O         -0.46107       -3.11438       -0.35956
O          0.42669       -1.29952       -1.64818
O          1.95763       -2.48720       -0.07672
H          2.58256       -1.14273        0.79979
S          0.53135        1.91409       -0.25851
O          1.10413        1.91986        1.10297
O         -0.89347        1.58885       -0.36497
O          0.55763        3.46388       -0.74953
O          1.40095        1.16933       -1.20205
H          1.45036        3.80778       -0.61426
H          0.86480       -0.41499       -1.59073
N          2.88461       -0.25830        1.28078
H          2.07299        0.39731        1.27074
C          4.04120        0.35493        0.59073
H          4.34100        1.25889        1.12047
H          4.86389       -0.35892        0.55605
H          3.71802        0.61138       -0.41768
H          3.08818       -0.48678        2.25128
H         -3.51343       -1.57183        1.15664
H         -2.05159       -0.67617        1.64537
H         -4.16061        0.69312        2.01497
H         -3.04643        1.43967        0.85930
H         -5.56668        0.11113        0.20812
H         -4.94631        1.51001       -0.37471
H         -1.90662       -1.74084       -0.56433
H         -3.10966       -0.64667       -1.07607
C         -2.89908       -0.68911        0.95958
C         -3.72131        0.59339        1.01466
N         -2.34754       -0.81899       -0.41235
N         -4.70838        0.57502       -0.06787
H         -1.62427       -0.08477       -0.54413
