26
2sa1eda_102.log	Energy: -998247.4589881
S          0.59334       -0.92608       -0.21715
O          1.86850       -1.43775       -0.77511
O         -0.59220       -1.65134       -0.70403
O          0.65781       -0.77158        1.24612
O          0.51818        0.56225       -0.83841
H          2.66118       -0.81266        1.88156
H         -0.38458        0.92438       -0.68731
S         -3.21583        0.49063        0.00897
O         -4.56008        0.91828       -0.26762
O         -2.07687        1.30298       -0.38018
O         -3.03658        0.32086        1.59960
O         -3.05587       -0.96565       -0.53083
H         -3.84051       -0.07553        1.96571
H         -2.08086       -1.24971       -0.56554
H          2.53921        1.30869        1.04808
H          4.02387        1.25903        2.02753
H          4.55604        2.38477       -0.03554
H          5.34826        0.82439       -0.10243
H          3.66489        0.07157       -1.63555
H          2.82306        1.45248       -1.48068
H          2.99326       -0.97443        0.30717
H          4.27186       -1.04447        1.44606
C          3.55346        0.90692        1.10548
C          4.36456        1.31050       -0.13138
N          3.39988       -0.57623        1.20740
N          3.75629        1.05761       -1.41868
