33
2sa1ma1eda_51.log	Energy: -1058425.7893291
S         -2.90593        0.33930        0.07479
O         -3.17519       -0.89079        0.84603
O         -2.64420        1.52803        0.89316
O         -1.89431        0.12742       -0.98946
O         -4.25326        0.63895       -0.78094
H         -4.97933        0.78195       -0.15845
S          2.26355       -1.01986       -0.19909
O          1.83142       -2.06695       -1.12915
O          2.88457        0.15842       -0.81339
O          1.20521       -0.67030        0.79107
O          3.39720       -1.68637        0.76696
H          4.14684       -1.93997        0.21156
N         -0.89853       -2.31257        0.09832
H         -0.94637       -2.03437       -0.88384
H         -0.13918       -1.71590        0.49728
C         -0.59356       -3.74866        0.26647
H         -0.52491       -3.96803        1.33151
H         -1.38754       -4.34461       -0.18317
H          0.36133       -3.95069       -0.21765
H         -1.79870       -2.01131        0.51893
H          1.51991        2.02369       -1.49033
H          0.30128        3.32541       -1.45302
H          2.55918        4.05567       -0.62518
H          1.29659        4.25570        0.59559
H          3.09467        1.92400        0.53411
H          3.09031        3.13638        1.66280
H         -0.53372        1.19720       -0.58266
H          0.66375        1.18538        0.57312
C          0.94346        2.68751       -0.84286
C          1.87575        3.50736        0.04108
N          0.08256        1.81004       -0.01253
N          2.52248        2.62601        0.99891
H         -0.55705        2.31965        0.60306
