33
2sa1ma1eda_54.log	Energy: -1058427.2450193
S          0.95088        1.65331       -0.73576
O          0.81591        1.06517        0.63978
O          2.31385        1.97258       -1.11151
O          0.52994        0.45166       -1.73350
O         -0.06735        2.71505       -0.90676
H         -1.30796        2.29492        0.13504
S         -2.25890       -1.28537       -0.16950
O         -3.53491       -1.97301       -0.22276
O         -1.79466       -0.82559        1.15783
O         -1.11760       -2.45210       -0.50562
O         -2.05333       -0.24392       -1.19824
H         -1.52025       -3.10278       -1.09519
H         -0.42980        0.24071       -1.61897
N         -1.91912        1.97994        0.93356
H         -2.89397        2.12504        0.67882
C         -1.53609        2.70169        2.16673
H         -2.12947        2.33691        3.00508
H         -0.47790        2.50665        2.33681
H         -1.69626        3.77011        2.02468
H         -1.77230        0.95420        1.04274
H          2.36482       -2.93415       -0.30337
H          1.81966       -1.48168       -1.19124
H          4.29259       -1.40064       -0.66990
H          3.39022       -0.06452        0.03821
H          4.51643       -2.34592        1.47182
H          4.46530       -0.76889        1.90117
H          0.39064       -2.08305        0.71644
H          1.71870       -1.74506        1.72176
C          2.23652       -1.84912       -0.25272
C          3.54608       -1.14600        0.09145
N          1.25951       -1.55237        0.82594
N          3.94095       -1.51135        1.45516
H          1.01460       -0.52042        0.80122
