36
2sa1dma1eda_90.log	Energy: -1083085.0429259
S          0.84113       -1.54515       -0.04263
O          1.31082       -0.51553       -1.04957
O          0.08416       -0.81773        1.05094
O         -0.06498       -2.53658       -0.67054
O          2.06338       -2.20105        0.53204
H          3.18500       -1.24398        0.51143
S         -0.47161        2.26026       -0.10793
O         -1.70322        1.52543       -0.42769
O         -0.54166        3.69041        0.01054
O          0.12797        1.66837        1.21504
O          0.60863        1.90985       -1.19813
H          0.12405        0.62568        1.18179
H          0.81693        0.90618       -1.19148
N          3.99371       -0.50141        0.46939
C          3.48129        0.78487        1.00293
C          4.47224       -0.41798       -0.93063
H          4.73830       -0.84769        1.07233
H          2.70842        1.15089        0.32862
H          3.04147        0.60951        1.98472
H          4.29458        1.50983        1.07101
H          3.60920       -0.17944       -1.55270
H          5.24357        0.35002       -1.01592
H          4.86953       -1.39001       -1.22350
H         -3.24790       -2.38919        0.80752
H         -2.29778       -1.02639        1.43019
H         -4.77223       -0.60031        1.70060
H         -4.01840        0.57006        0.61012
H         -5.72900       -1.66312       -0.19112
H         -5.77631       -0.10027       -0.67218
H         -1.56192       -1.79759       -0.76372
H         -3.10026       -1.29851       -1.36956
C         -3.02850       -1.32584        0.67851
C         -4.29634       -0.48268        0.71860
N         -2.38890       -1.15509       -0.64827
N         -5.15541       -0.85527       -0.40799
H         -2.03840       -0.18072       -0.71857
