33
2sa1ma1eda_74.log	Energy: -1058425.9987981
S         -1.02718        1.72070       -0.38453
O         -2.32517        1.28325       -0.89108
O         -0.72901        1.24470        0.99665
O          0.11370        1.50068       -1.29007
O         -1.11819        3.32943       -0.15646
H         -1.46239        3.72918       -0.96734
S          2.09492       -1.53207       -0.31281
O          2.60002       -2.81640       -0.73935
O          1.50973       -1.49972        1.05987
O          2.99666       -0.36128       -0.49867
O          0.82291       -1.22781       -1.29889
H          2.49907        0.74473        0.53363
H          0.72274       -0.26002       -1.42510
N          2.09098        1.44017        1.23096
H          1.06584        1.27909        1.25016
C          2.38973        2.83310        0.83138
H          1.94143        3.52777        1.54160
H          3.46974        2.97299        0.79181
H          1.95914        2.98943       -0.15711
H          2.46497        1.20185        2.14694
H         -2.38422       -3.19471        1.21303
H         -2.45382       -1.90139        2.43681
H         -4.49778       -1.95431        0.89186
H         -3.63584       -0.41345        0.87896
H         -3.97229       -2.15757       -1.32641
H         -3.23797       -0.66953       -1.27867
H         -0.24877       -1.94756        1.14306
H         -1.17278       -1.67307       -0.20644
C         -2.40559       -2.11347        1.36670
C         -3.56316       -1.46867        0.59372
N         -1.15246       -1.55761        0.81814
N         -3.30445       -1.57987       -0.83614
H         -1.07048       -0.53876        0.99311
