34
2sa1ma1tma_11.log	Energy: -1048351.4240636
S         -2.52811       -0.84990       -0.01664
O         -2.22536       -2.25277        0.33128
O         -2.98131       -0.02405        1.10418
O         -1.45350       -0.22930       -0.82553
O         -3.75967       -0.90908       -1.08335
H         -4.50469       -1.35363       -0.65653
S          2.77243        0.13079       -0.20199
O          2.85676       -1.00548       -1.12882
O          3.09978        1.44055       -0.76297
O          1.50943        0.11097        0.58671
O          3.88291       -0.15073        0.97113
H          4.75469        0.03161        0.59574
N          0.51559       -2.32818       -0.14561
H          0.75081       -1.38091        0.23408
H         -0.50779       -2.46876       -0.03952
C          1.31883       -3.36920        0.52882
H          1.08875       -4.34454        0.10013
H          2.37301       -3.13248        0.38856
H          1.07168       -3.36541        1.58986
H          0.75683       -2.25631       -1.13420
N         -0.81774        2.26912        0.09111
C         -0.50682        2.25273        1.54524
H         -1.27873        1.66720        2.04624
H          0.46652        1.78045        1.67496
H         -0.50106        3.28115        1.91379
C          0.22666        2.97141       -0.69778
H          1.19840        2.51182       -0.51353
H         -0.02013        2.88153       -1.75627
H          0.23669        4.02388       -0.40501
C         -2.17043        2.82478       -0.17044
H         -2.38272        2.73522       -1.23608
H         -2.89599        2.24154        0.39672
H         -2.18632        3.87402        0.13234
H         -0.85573        1.27353       -0.22779
