33
2sa1ma1eda_130.log	Energy: -1058412.6392219
S         -1.42781       -1.88033        0.04036
O         -0.44027       -2.05646       -1.03220
O         -0.87590       -1.72777        1.38668
O         -2.44698       -0.83337       -0.27505
O         -2.24446       -3.27885       -0.00122
H         -2.95478       -3.23756        0.65362
S         -1.31313        2.04023       -0.33411
O         -1.32826        3.46705       -0.47684
O         -0.06954        1.35714       -0.00327
O         -2.40452        1.63957        0.74813
O         -1.89309        1.40873       -1.67241
H         -2.52595        0.65806        0.69734
H         -2.06282        0.44941       -1.50650
N          1.42136        0.03498        2.16538
H          0.43207        0.12712        1.94131
C          2.00131        1.33438        2.51255
H          1.55267        1.78996        3.40319
H          3.07554        1.22168        2.68854
H          1.85310        2.01746        1.67307
H          1.47579       -0.61519        2.94330
H          2.46032       -0.43149       -2.24588
H          1.76730        0.81159       -1.18333
H          4.21378        1.21513       -1.56058
H          3.86924        0.87793        0.13766
H          5.06946       -1.00484       -1.75739
H          5.60619       -0.56186       -0.27940
H          1.14662       -1.49782       -0.59711
H          2.77748       -1.76068       -0.22035
C          2.48247       -0.00979       -1.23666
C          3.89096        0.43204       -0.86228
N          2.03762       -1.05790       -0.29044
N          4.77114       -0.73704       -0.82512
H          1.86386       -0.64556        0.69155
