25
2sa1a1ma_07.log	Energy: -974370.2332438
S         -2.50943       -0.15711        0.10474
O         -2.35585       -1.42639        0.84767
O         -2.22341        1.03899        0.92541
O         -1.81820       -0.14678       -1.19162
O         -4.07876       -0.06347       -0.29606
H         -4.60274       -0.09241        0.51623
S          2.44345       -0.31421        0.14965
O          2.56630        0.78920        1.09668
O          2.22714       -1.64393        0.75988
O          1.48423       -0.05985       -0.95648
O          3.85574       -0.41554       -0.65202
H          4.56266       -0.51775       -0.00024
N         -0.10402        2.11473       -0.49150
H          0.49865        1.28270       -0.70259
H         -0.59072        2.35351       -1.35399
C          0.70034        3.23359        0.04981
H          0.03978        4.05476        0.32765
H          1.24488        2.86287        0.91729
H          1.41474        3.56083       -0.70513
H         -0.84352        1.79476        0.17196
N         -0.12661       -2.42421       -0.39631
H         -0.96061       -2.25124        0.20877
H         -0.13593       -1.67302       -1.09740
H          0.76521       -2.31330        0.14040
H         -0.18181       -3.33354       -0.84496
