30
2sa1a1eda_36.log	Energy: -1033763.5718545
S         -2.94258       -0.15764       -0.04821
O         -1.87149       -0.19646        0.98616
O         -2.90422        1.07369       -0.83808
O         -3.00150       -1.42541       -0.79967
O         -4.35692       -0.15071        0.74737
H         -4.58158        0.76831        0.94349
S          2.40513       -1.16546        0.10990
O          2.91623       -0.02624        0.86990
O          2.00180       -2.33757        0.89145
O          1.35360       -0.77140       -0.88296
O          3.60204       -1.64761       -0.88408
H          4.35817       -1.90171       -0.33753
H          0.22314        2.99441        1.53429
H          1.43024        1.67891        1.63543
H          2.48059        3.78296        0.78904
H          2.54784        2.46859       -0.38398
H          0.76849        4.79256       -0.51802
H          1.69517        4.13438       -1.69532
H         -0.70435        1.01023        0.54303
H         -0.34681        2.12555       -0.66715
C          0.89516        2.34886        0.96218
C          1.86940        3.16286        0.12074
N          0.06069        1.52465        0.05626
N          1.12585        3.91821       -0.88677
H          0.62797        0.78838       -0.41041
N         -0.61573       -2.62403       -0.35085
H          0.08265       -1.94854       -0.73609
H         -1.59054       -2.27277       -0.53520
H         -0.45945       -3.54539       -0.74966
H         -0.43178       -2.65472        0.65250
