24
2sa1dma_19.log	Energy: -963521.2186081
S          2.23625       -0.52915        0.18858
O          1.62132        0.48878        1.02883
O          3.64697       -0.78236        0.29156
O          1.48386       -1.87288        0.26743
O          1.88290        0.00023       -1.30610
H          2.21357       -0.63083       -1.96206
S         -2.01368       -0.95814       -0.18889
O         -1.77491        0.18121       -1.09487
O         -3.33791       -1.53550       -0.19884
O         -0.92464       -1.97400       -0.23618
O         -1.79819       -0.21569        1.27435
H          0.44844       -1.82517        0.07274
H         -1.93979       -0.86847        1.97329
N         -0.35795        2.17168        0.01246
C          0.39586        2.98569       -0.96512
C         -1.22496        2.95013        0.92276
H         -0.93952        1.45378       -0.49049
H          1.03253        3.69208       -0.43031
H          1.00949        2.31699       -1.56762
H         -0.30857        3.52426       -1.60016
H         -0.60865        3.61568        1.52912
H         -1.92916        3.53294        0.32768
H         -1.76788        2.24969        1.55598
H          0.31351        1.60066        0.55424
