30
2sa1a1eda_159.log	Energy: -1033754.2003395
S          2.59174       -0.45083       -0.37467
O          3.79833       -0.78725       -1.09697
O          1.32252       -0.48382       -1.14766
O          2.31216       -1.72889        0.65337
O          2.67638        0.73330        0.50105
H          3.15777       -1.99950        1.03497
H          1.56018        1.87383        0.77006
S         -0.54652        1.85672        0.44025
O          0.80646        2.53865        0.83149
O         -1.59662        2.83387        0.51317
O         -0.36661        1.46874       -1.08143
O         -0.68670        0.61622        1.21043
H          0.32411        0.73835       -1.18339
H         -0.47160       -0.98312        0.63372
H         -1.57029       -3.72400        0.87310
H         -1.45538       -2.50391        2.16851
H         -3.77068       -2.60088        1.05306
H         -3.00015       -1.01379        0.99851
H         -3.51362       -2.72857       -1.24909
H         -3.25949       -1.08054       -1.17224
H          0.40181       -2.37730        0.44401
H         -0.82991       -1.97863       -0.64314
C         -1.61774       -2.65599        1.10017
C         -2.93728       -2.03848        0.61743
N         -0.53651       -1.98041        0.34635
N         -2.94526       -1.99869       -0.83909
N         -3.47544        0.92564       -1.44249
H         -4.26480        1.18105       -2.02738
H         -2.62965        1.18002       -1.94660
H         -3.49856        1.53728       -0.63007
