30
2sa1a1eda_40.log	Energy: -1033764.9344474
S         -2.28057       -1.08467        0.11079
O         -2.75283       -0.01131        0.98275
O         -1.36101       -0.64341       -0.96721
O         -1.76572       -2.27655        0.81668
O         -3.56983       -1.58843       -0.74509
H         -4.26826       -1.82586       -0.11976
S          2.81335       -0.09100        0.15104
O          2.42999        1.05793        0.97584
O          2.76375       -1.39091        0.86204
O          2.13017       -0.14196       -1.15851
O          4.37029        0.12835       -0.26142
H          4.87930        0.26162        0.54984
H         -0.02197        3.74768       -0.87648
H         -0.92873        2.81313       -2.09442
H         -2.41155        3.92421       -0.31988
H         -2.62371        2.17751       -0.46160
H         -1.71871        3.56315        1.82786
H         -2.01317        1.94367        1.63297
H          0.95577        1.49969       -1.15684
H          0.32924        1.74056        0.35084
C         -0.67378        2.88535       -1.03492
C         -1.92310        2.95898       -0.14976
N          0.08285        1.67501       -0.64667
N         -1.54765        2.75710        1.24356
H         -0.49372        0.81294       -0.76661
N          0.69797       -2.64747       -0.34996
H          1.51145       -2.31883        0.22945
H         -0.18729       -2.67569        0.20405
H          0.56256       -1.93315       -1.07329
H          0.89471       -3.54803       -0.77633
