36
2sa1dma1eda_23.log	Energy: -1083090.9814245
S          2.81551        0.63428       -0.04528
O          3.17119       -0.63491       -0.71906
O          2.47799        1.72015       -0.99040
O          1.83380        0.47284        1.03168
O          4.16106        1.11402        0.73005
H          4.86028        1.23714        0.07388
S         -2.28979       -1.05754        0.04900
O         -2.07427       -2.40232        0.58298
O         -2.88537       -0.08811        0.96806
O         -1.08465       -0.53271       -0.66347
O         -3.33150       -1.20523       -1.20226
H         -4.15254       -1.58348       -0.85927
N          1.02560       -2.26777       -0.05894
C          0.73553       -3.41492       -0.94421
C          1.07387       -2.60787        1.38261
H          1.91257       -1.79765       -0.33659
H         -0.24265       -3.81661       -0.67737
H          0.72152       -3.06356       -1.97599
H          1.51106       -4.17228       -0.81984
H          0.09715       -2.99247        1.67738
H          1.85253       -3.35546        1.54322
H          1.30915       -1.69443        1.92819
H          0.28341       -1.55578       -0.21113
H         -0.69204        4.04990       -0.69780
H         -1.16803        2.88199       -1.95361
H         -3.12056        3.75348       -0.52805
H         -2.96435        1.99620       -0.56768
H         -2.78021        3.62374        1.71953
H         -2.67097        1.97646        1.60157
H          0.77877        2.12455       -0.60560
H         -0.22274        2.19007        0.74335
C         -1.11889        3.06013       -0.87743
C         -2.49041        2.91621       -0.21080
N         -0.20438        2.06598       -0.27520
N         -2.32612        2.85989        1.23857
H         -0.53607        1.09274       -0.44642
