30
2sa1a1eda_106.log	Energy: -1033761.5733122
S         -0.12596       -1.94206       -0.36277
O         -0.24144       -0.77579       -1.31126
O         -1.13876       -2.95705       -0.57664
O          1.27281       -2.62828       -0.67573
O         -0.06597       -1.42167        1.03373
H          1.98809       -1.97275       -0.51084
H         -2.46165       -1.69892        2.01414
S          2.34149        0.87339        0.21657
O          3.19641        1.99599        0.46096
O          2.89319       -0.43602       -0.11761
O          1.39765        0.69690        1.47686
O          1.33349        1.28382       -0.93974
H          0.89429       -0.17084        1.39828
H          0.78656        0.48194       -1.19416
H         -2.62931        1.79417        1.45609
H         -0.98886        1.18417        1.14878
H         -1.20102        3.61385        0.54016
H         -0.77490        2.61254       -0.84116
H         -3.39699        3.80269       -0.32909
H         -2.54287        3.74657       -1.72029
H         -3.14994        1.01386       -0.81590
H         -1.71272        0.13587       -0.80890
C         -1.88691        1.58661        0.68001
C         -1.57940        2.83777       -0.13569
N         -2.45844        0.55125       -0.21601
N         -2.77715        3.22354       -0.88528
N         -3.16611       -1.69223        1.27979
H         -2.87737       -0.25651        0.34073
H         -4.06015       -1.93125        1.69552
H         -2.89105       -2.44386        0.64599
