31
2sa1ma1dma_19.log	Energy: -1023697.1689939
S         -2.05770       -0.43894       -0.57509
O         -3.47326       -0.54507       -0.82468
O         -1.37264        0.72454       -1.23224
O         -1.66474       -0.46738        0.86936
O         -1.38911       -1.74727       -1.23409
H         -0.58650       -1.61655        1.33329
H         -0.40930       -1.63140       -1.29283
S          1.98910       -0.18524       -0.65908
O          3.39630       -0.16316       -0.97233
O          1.29547       -1.49658       -0.90178
O          1.63584        0.29318        0.71281
O          1.29226        0.84593       -1.68169
H          0.50191        1.52210        0.86322
H          0.30990        0.72693       -1.66328
N          0.18199       -2.33210        1.44339
H         -0.23872       -3.25686        1.37909
C          0.95289       -2.13813        2.69180
H          1.72210       -2.90641        2.76922
H          1.42112       -1.15619        2.63237
H          0.27913       -2.19460        3.54674
H          0.77553       -2.17395        0.59665
N         -0.22514        2.26836        0.73984
C          0.42711        3.48017        0.19870
C         -0.97621        2.46970        1.99594
H         -0.84715        1.84911        0.01746
H          1.12840        3.86879        0.93846
H          0.96611        3.20134       -0.70711
H         -0.33227        4.22994       -0.02769
H         -0.28575        2.78905        2.77815
H         -1.73921        3.23446        1.84166
H         -1.44947        1.52332        2.25707
