36
2sa1dma1eda_68.log	Energy: -1083088.8217440
S         -2.27590       -1.18795        0.11501
O         -1.66186       -2.28679        0.89463
O         -3.00338       -0.20839        0.92923
O         -1.34024       -0.59660       -0.85871
O         -3.38128       -1.89792       -0.85090
H         -4.03315       -2.33465       -0.28612
S          2.80954        0.82721       -0.16291
O          3.45137       -0.31003       -0.82022
O          2.42768        1.94964       -1.02215
O          1.68672        0.40742        0.73756
O          3.87433        1.40459        0.92789
H          4.66907        1.67828        0.45001
N          1.02229       -2.22912        0.17677
C          1.97839       -2.96042        1.03325
C          1.14028       -2.54516       -1.26661
H          0.04070       -2.38894        0.48775
H          2.99086       -2.68440        0.73517
H          1.80870       -2.67552        2.07144
H          1.82418       -4.03363        0.91192
H          2.13300       -2.24757       -1.60515
H          0.98184       -3.61565       -1.40740
H          0.37176       -1.97993       -1.79294
H          1.19227       -1.21203        0.31816
H         -1.67114        1.76220        1.51615
H         -0.68099        3.24296        1.48100
H         -3.11122        3.67164        1.02918
H         -2.08284        4.18291       -0.31446
H         -3.50015        1.60260       -0.27106
H         -3.82933        2.89019       -1.25658
H          0.33451        1.37342        0.29937
H         -0.98806        1.25018       -0.69589
C         -1.29747        2.56964        0.88242
C         -2.45858        3.30343        0.22270
N         -0.43454        1.92499       -0.13834
N         -3.10301        2.41855       -0.73322
H          0.01607        2.58852       -0.76974
