36
2sa1dma1eda_28.log	Energy: -1083090.4492525
S         -2.69186        0.41973        0.03446
O         -3.15339       -0.67283        0.89084
O         -2.55649        1.73304        0.66109
O         -1.48266        0.03044       -0.76066
O         -3.79340        0.58318       -1.16047
H         -4.61059        0.91431       -0.76406
S          2.47896       -1.02985       -0.16473
O          1.69362       -0.65184        1.01275
O          2.00805       -2.27173       -0.81700
O          2.69665        0.07952       -1.11892
O          3.94482       -1.37699        0.44773
H          4.52168       -1.63984       -0.28224
N         -0.62934       -2.47023        0.06350
C         -1.53617       -3.32209       -0.73335
C         -0.70586       -2.69854        1.52527
H          0.35390       -2.57221       -0.26123
H         -2.56368       -3.10141       -0.44141
H         -1.39496       -3.08977       -1.78876
H         -1.30384       -4.37201       -0.54845
H         -1.71239       -2.44612        1.85942
H         -0.47487       -3.74503        1.73176
H          0.02974       -2.04952        1.99933
H         -0.87871       -1.48032       -0.14334
H         -0.33010        2.61955        1.01855
H          1.06610        1.56028        1.32855
H          1.65714        3.98447        1.71164
H          2.61223        3.26957        0.40838
H          0.30747        5.04404        0.03311
H          1.82675        5.21381       -0.55339
H         -0.23728        1.20600       -0.78857
H          0.49069        2.64755       -1.31591
C          0.68377        2.36464        0.69915
C          1.60117        3.57959        0.69290
N          0.58352        1.84156       -0.68919
N          1.11735        4.53470       -0.30600
H          1.43134        1.29251       -0.94395
