30
2sa1a1eda_179.log	Energy: -1033751.7984780
S          0.29197        0.98291        0.13208
O          1.59640        1.51797        0.50923
O         -0.86332        1.75288        0.64548
O          0.15433        0.66544       -1.30727
O          0.24304       -0.45077        0.90358
H          1.50414       -0.16229       -1.92599
H         -0.68032       -0.78829        0.86856
S         -3.48347       -0.41522        0.09432
O         -4.85624       -0.73739        0.38128
O         -2.40091       -1.16877        0.70435
O         -3.22773       -0.59956       -1.48630
O         -3.28678        1.11151        0.31967
H         -3.97303       -0.21618       -1.97054
H         -2.29500        1.37403        0.40626
H          2.96416       -0.12768        1.56954
H          4.10233       -1.36347        2.10710
H          5.43285        0.28357        1.16922
H          5.39543       -0.97228       -0.07246
H          3.57959        1.34550       -0.14569
H          5.03570        1.31815       -0.91004
H          3.28079       -2.80376        0.52626
H          1.93375       -1.90292        0.79711
C          3.65980       -0.89488        1.21924
C          4.78424       -0.21641        0.43666
N          2.88422       -1.87437        0.43269
N          4.27915        0.73352       -0.57007
N          2.41376       -0.66845       -2.04893
H          3.20456       -0.01582       -1.79482
H          2.50320       -1.08014       -2.97153
H          2.50145       -1.36918       -1.26683
