25
2sa1a1ma_16.log	Energy: -974368.2138430
S         -2.48402       -0.24998       -0.21143
O         -2.25648        0.98941       -0.99067
O         -2.16560       -1.48310       -0.93032
O         -1.88308       -0.18323        1.14153
O         -4.07453       -0.27279        0.11131
H         -4.55158       -0.34547       -0.72674
S          2.48053       -0.23557       -0.20273
O          2.04124       -1.39420       -0.98406
O          2.27427        1.06479       -0.88046
O          1.98191       -0.24210        1.19046
O          4.08595       -0.36709       -0.00521
H          4.49373       -0.41778       -0.88057
N         -0.02740        2.37106       -0.30478
H         -0.89240        1.83617       -0.57092
H          0.82384        1.83708       -0.60982
C          0.01963        2.58039        1.16436
H          0.93403        3.11409        1.42151
H         -0.86064        3.14134        1.47677
H          0.01928        1.60119        1.63910
H         -0.03972        3.25467       -0.80993
N          0.01523       -2.12233        1.06320
H         -0.81905       -1.51945        1.25619
H         -0.01964       -3.00373        1.56548
H          0.04152       -2.28755        0.05242
H          0.86435       -1.55885        1.29734
