26
2sa1eda_91.log	Energy: -998251.2415838
S          0.55348        0.81700       -0.15392
O          1.86220        1.45576       -0.04586
O         -0.58090        1.72657       -0.40771
O          0.55680       -0.34028       -1.09513
O          0.32440        0.18488        1.31220
H         -0.59697       -0.15321        1.36965
S         -3.31785       -0.30577        0.19631
O         -4.72274       -0.37590        0.49775
O         -2.32067       -0.58300        1.21437
O         -2.98568       -1.37132       -0.96554
O         -3.04060        1.06992       -0.48279
H         -3.70017       -1.35355       -1.61836
H         -2.04660        1.30841       -0.48503
H          2.53514       -0.94337        0.95010
H          3.39587       -2.44635        0.57717
H          4.73672       -0.60830        1.84007
H          5.53270       -1.28587        0.41280
H          4.03326        1.25001        0.38582
H          5.65266        1.02850        0.10690
H          2.03041       -0.92433       -1.19579
H          3.59253       -0.26005       -1.28783
C          3.36316       -1.37355        0.38487
C          4.68310       -0.67964        0.74630
N          3.06990       -1.12977       -1.05875
N          4.73902        0.59807        0.04825
H          3.38170       -1.88341       -1.66553
