36
2sa1dma1eda_97.log	Energy: -1083086.2354951
S          0.59519       -1.95795       -0.90208
O          1.25108       -3.15230       -1.37860
O         -0.85908       -1.83854       -1.14027
O          0.86509       -1.69038        0.57245
O          1.29725       -0.72491       -1.64560
H          2.07046       -0.66919        0.84343
H          0.66338        0.05024       -1.71899
S         -1.40018        1.61275       -0.83214
O         -2.15713        2.82264       -1.04914
O         -0.25516        1.38407       -1.75191
O         -0.95657        1.41615        0.59330
O         -2.41576        0.38569       -1.10231
H         -1.48884        0.00509        1.25336
H         -1.87966       -0.42211       -1.28541
N         -1.49452       -0.91738        1.76207
C         -2.74017       -1.67133        1.51272
C         -1.21710       -0.64347        3.18454
H         -0.67344       -1.40337        1.34083
H         -3.59227       -1.06813        1.82846
H         -2.80571       -1.88141        0.44703
H         -2.71138       -2.60769        2.07286
H         -2.05239       -0.09016        3.61601
H         -1.07767       -1.58449        3.71913
H         -0.31233       -0.03804        3.25048
H          4.31372        1.31812        0.64504
H          3.51526        0.45696       -0.70478
H          2.82447        2.97414       -0.27965
H          1.54396        1.80346       -0.55942
H          2.02315        3.23189        1.85232
H          0.71154        2.34338        1.36655
H          3.53893       -0.59783        1.66219
H          2.35412        0.59354        1.93691
C          3.36000        0.95575        0.25196
C          2.32860        2.09434        0.13996
N          2.81910       -0.02169        1.23418
N          1.72809        2.35017        1.45271
