33
2sa1ma1eda_107.log	Energy: -1058417.4743141
S         -1.99003       -1.28115       -0.16677
O         -1.32042       -2.57415       -0.33915
O         -1.76216       -0.63096        1.13755
O         -1.73071       -0.36868       -1.31074
O         -3.57835       -1.56661       -0.14558
H         -3.79903       -2.14070       -0.89224
S         -0.27854        2.35063        0.06143
O          0.04866        3.73758        0.21341
O          0.77500        1.39576       -0.29113
O         -0.94262        1.86398        1.41136
O         -1.43244        2.21961       -1.00232
H         -1.29026        0.92945        1.32653
H         -1.61828        1.25141       -1.18646
N          1.19466       -0.98638        1.80484
H          1.25291        0.01953        1.93781
C          2.25504       -1.67594        2.54602
H          2.23461       -1.47431        3.62313
H          2.15096       -2.75383        2.39662
H          3.21854       -1.36140        2.13763
H          0.26423       -1.26348        2.11038
H          3.03818       -2.35596       -0.90901
H          2.38996       -1.95391       -2.51779
H          4.34390       -0.56743       -1.95213
H          2.90300        0.42131       -2.18868
H          4.44293        0.72611       -0.10465
H          2.82477        0.85850        0.06654
H          0.54905       -2.11429       -1.00687
H          1.27429       -1.19011        0.20589
C          2.53919       -1.58398       -1.49964
C          3.37513       -0.30933       -1.51437
N          1.21494       -1.34376       -0.88151
N          3.57352        0.21008       -0.16517
H          0.76351       -0.49905       -1.24741
