34
2sa1ma1tma_07.log	Energy: -1048355.4657517
S          1.12523        1.72868       -0.49242
O          0.73103        0.87630        0.69556
O          0.68826        0.85014       -1.76858
O          0.33256        2.96670       -0.50492
O          2.56873        1.85430       -0.63331
H         -1.38453        2.74484        0.44563
H          1.54632       -0.56857        0.64009
S         -1.86704       -1.27326       -0.31809
O         -2.39235       -0.98129        1.02163
O         -0.63967       -2.05547       -0.38991
O         -2.95165       -2.23657       -1.05226
O         -1.83257       -0.02416       -1.14990
H         -3.81755       -1.80995       -1.00946
H         -0.23825        0.52553       -1.65110
N         -1.82452        1.90602        0.84837
H         -2.10152        1.29994        0.05068
C         -2.92232        2.14683        1.80143
H         -3.28078        1.17987        2.15295
H         -2.55311        2.74159        2.63674
H         -3.72708        2.68202        1.29738
H         -1.02481        1.38943        1.25126
N          2.28308       -1.32393        0.61821
C          1.81121       -2.45756        1.45049
H          1.64403       -2.09734        2.46636
H          0.87493       -2.82445        1.03118
H          2.57620       -3.23753        1.45272
C          2.46650       -1.71524       -0.80587
H          1.51390       -2.08596       -1.18209
H          2.76253       -0.82945       -1.36823
H          3.23966       -2.48550       -0.85852
C          3.51201       -0.69839        1.16937
H          3.74009        0.18871        0.57674
H          3.32175       -0.40436        2.20200
H          4.32792       -1.42356        1.12893
