33
2sa1ma1eda_76.log	Energy: -1058426.7540622
S         -0.83520       -1.99543        0.32931
O         -0.60450       -1.17518        1.71254
O         -0.49771       -1.04031       -0.74854
O          0.12394       -3.09739        0.46572
O         -2.26652       -2.36989        0.28846
H         -3.00132       -0.93189       -0.33802
S         -0.29226        2.06563        0.31867
O         -0.65723        2.38748       -1.05833
O          1.01945        1.45383        0.54992
O         -0.14241        3.48466        1.10180
O         -1.39812        1.34669        1.03425
H         -0.85193        4.06661        0.79945
H         -0.92203       -0.24829        1.59942
N         -3.21577        0.06053       -0.61011
H         -4.17212        0.27616       -0.33770
C         -2.97939        0.28909       -2.05759
H         -3.15206        1.33972       -2.28637
H         -1.93896        0.03622       -2.25107
H         -3.64606       -0.35107       -2.63536
H         -2.56574        0.64843       -0.03736
H          3.10634       -1.90465       -1.29295
H          1.73569       -0.81438       -1.62255
H          3.96123        0.29090       -2.14869
H          3.06481        1.12820       -0.87280
H          5.43040       -0.54749       -0.49559
H          5.06726        0.90336        0.17068
H          1.65095       -1.94217        0.56230
H          3.02154       -1.01621        0.99008
C          2.63066       -0.95956       -1.01743
C          3.60480        0.20849       -1.11439
N          2.18831       -1.07249        0.39536
N          4.67391        0.02038       -0.13020
H          1.57472       -0.26281        0.61340
