26
2sa1eda_69.log	Energy: -998251.4783745
S          0.57355       -1.03606       -0.19152
O          1.09948        0.14895       -0.88313
O         -0.68170       -1.56584       -0.76480
O          1.60448       -2.07894        0.01187
O          0.23425       -0.58280        1.31847
H         -0.57098       -0.01893        1.29962
S         -3.16536        0.59698        0.06091
O         -4.14373        1.59399       -0.28190
O         -2.03937        0.92438        0.91771
O         -3.89539       -0.61029        0.83955
O         -2.67540       -0.06847       -1.26101
H         -4.73540       -0.80678        0.40025
H         -1.85909       -0.66615       -1.10045
H          2.64626        0.30428        1.27208
H          4.30307        0.03340        1.83863
H          3.69586        2.45812        1.13074
H          5.17248        1.80939        0.40451
H          2.56412        1.81824       -0.96635
H          3.93978        2.63408       -1.40487
H          3.05716       -1.39182       -0.07367
H          3.75157       -0.14079       -0.98814
C          3.69701        0.32249        0.97941
C          4.08225        1.70359        0.43358
N          3.85368       -0.68733       -0.10912
N          3.58182        1.81558       -0.93009
H          4.75903       -1.14983       -0.10031
