26
2sa1eda_96.log	Energy: -998249.9613892
S          2.62884       -0.35020        0.01468
O          3.99612       -0.77516        0.13179
O          2.10488        0.66013        0.92155
O          2.37975        0.30227       -1.43816
O          1.72825       -1.61609        0.00144
H          2.79925       -0.25240       -2.11253
H          0.74089       -1.42347       -0.22293
S         -1.94195       -1.29702       -0.02446
O         -2.60907       -2.56087       -0.25728
O         -0.62598       -1.10414       -0.68943
O         -2.84617       -0.15381       -0.78333
O         -1.88564       -0.85203        1.38766
H         -3.70548       -0.55464       -0.97060
H         -0.95680        0.42738        1.69029
H         -0.44258        1.21736       -0.77434
H          0.51271        2.67459       -0.50767
H         -0.85337        3.37074        1.35626
H         -2.13116        2.20830        0.94385
H          0.55086        1.16871        1.57196
H         -0.49279        1.59531        2.80507
H         -0.86683        3.33001       -2.20184
H         -2.17463        2.53855       -1.62453
C         -0.50473        2.27330       -0.48312
C         -1.05300        2.38255        0.93870
N         -1.35606        3.07402       -1.35288
N         -0.43839        1.34277        1.82089
