21
2sa1ma_08.log	Energy: -938863.0294494
S         -1.96772       -0.64780       -0.07560
O         -3.37705       -0.84864        0.07367
O         -1.27703       -2.03923       -0.27187
O         -1.47922        0.26764       -1.11481
O         -1.40619       -0.12535        1.31685
H         -0.52375        1.68077       -0.91394
H         -0.41236       -0.02436        1.28653
S          2.03512       -0.48142        0.14039
O          3.38605       -0.67511        0.61100
O          1.16688        0.39041        0.99701
O          2.12465        0.49384       -1.19024
O          1.32154       -1.69216       -0.29836
H          2.77816        0.12264       -1.79838
H         -0.28066       -1.94186       -0.35486
N          0.05047        2.40931       -0.43726
H          0.67792        1.84306        0.17360
C         -0.81541        3.31462        0.35454
H         -0.19483        4.00016        0.93034
H         -1.47135        3.86885       -0.31557
H         -1.41350        2.70030        1.02748
H          0.62409        2.89399       -1.12410
