36
2sa1dma1eda_08.log	Energy: -1083091.8374164
S         -0.13330        2.16429       -0.58238
O         -1.24154        1.81107        0.32935
O          1.11896        2.48940        0.13192
O          0.00975        1.22350       -1.70017
O         -0.56548        3.54028       -1.32579
H         -0.51756        4.25828       -0.68031
S          0.91620       -2.03348       -0.65312
O          1.88025       -3.10483       -0.51250
O         -0.34047       -2.35137       -1.36712
O          0.59611       -1.31537        0.62915
O          1.68694       -0.91833       -1.54193
H          1.77499       -0.32526        1.07436
H          1.08147       -0.15810       -1.70893
N          2.50790        0.41346        1.27960
C          3.81177       -0.04858        0.75667
C          2.49071        0.72157        2.72210
H          2.16376        1.24356        0.75790
H          4.09606       -0.96475        1.27616
H          3.69290       -0.26120       -0.30556
H          4.56440        0.72576        0.91549
H          2.72477       -0.18364        3.28449
H          3.22683        1.49695        2.94109
H          1.49442        1.07646        2.98649
H         -2.80899       -2.34763        0.78190
H         -1.66976       -1.22345        1.53840
H         -3.97593       -0.96759        2.52736
H         -3.46403        0.50547        1.69273
H         -5.39047       -1.44822        0.67142
H         -5.52905        0.17980        0.76588
H         -1.56551       -1.29987       -0.89943
H         -3.13874       -0.61717       -0.91601
C         -2.57486       -1.29049        0.93427
C         -3.75202       -0.53959        1.54138
N         -2.26505       -0.70520       -0.39044
N         -4.87580       -0.57665        0.60414
H         -1.86497        0.24405       -0.25823
