28
2sa1a1dma_20.log	Energy: -999032.5596729
S          2.23922       -0.29644       -0.23591
O          3.59902        0.10459       -0.53061
O          1.69502        0.13694        1.08262
O          1.25442       -0.06055       -1.31147
O          2.25984       -1.93376       -0.01475
H          2.82045       -2.32499       -0.69832
S         -2.23405       -0.55464       -0.37247
O         -2.10558        0.73172       -1.09593
O         -3.45756       -1.29759       -0.55245
O         -1.05574       -1.50976       -0.95384
O         -1.83755       -0.34734        1.06851
H         -0.27657       -0.96007       -1.20786
H         -0.84743       -1.36528        1.61887
N         -0.23333        2.13329        0.26076
C         -0.94588        2.77255        1.38698
C          0.54571        3.05892       -0.58988
H          0.39930        1.40093        0.62775
H         -1.63424        3.52126        0.99274
H         -1.50776        1.99691        1.90741
H         -0.22296        3.24382        2.05497
H         -0.12971        3.80568       -1.00945
H          1.31525        3.54478        0.01210
H          1.00646        2.47890       -1.38937
H         -0.94053        1.62298       -0.33077
N          0.02811       -1.93989        1.88740
H          0.80720       -1.25960        1.91440
H          0.22984       -2.58391        1.12148
H         -0.07944       -2.44076        2.76386
