26
2sa1eda_37.log	Energy: -998254.9728242
S         -0.85842        1.81034        0.03371
O         -1.54457        1.30852        1.21140
O          0.59909        2.06892        0.20011
O         -1.12395        1.03080       -1.20235
O         -1.49946        3.27461       -0.21096
H         -0.97796        3.72927       -0.88643
S          2.64292       -0.74530       -0.06952
O          1.38146       -1.45145        0.07863
O          3.75861       -1.37997       -0.72241
O          2.43125        0.64324       -0.72841
O          3.04294       -0.39248        1.44881
H          1.63601        1.18711       -0.34037
H          3.94164       -0.03217        1.46061
H         -1.64310       -2.82399        0.97995
H         -1.32008       -1.10693        1.35210
H         -3.76746       -1.64014        1.57895
H         -3.43872       -0.42680        0.34540
H         -4.19897       -3.21231       -0.13120
H         -4.73572       -1.85574       -0.86716
H         -0.26356       -1.89221       -0.70640
H         -1.83139       -2.13962       -1.34486
C         -1.82909       -1.79115        0.67361
C         -3.31831       -1.48571        0.59069
N         -1.25065       -1.61310       -0.68526
N         -3.91609       -2.29975       -0.47159
H         -1.26399       -0.59362       -0.95399
