37
2sa1dma1tma_17.log	Energy: -1073016.4480241
S         -0.63221        1.97005        0.39353
O         -1.96365        2.50670        0.12676
O          0.26770        2.74386        1.24033
O         -0.99894        0.59130        1.23548
O          0.04324        1.45592       -0.83751
H          1.63438        1.22048       -0.63889
S          1.18707       -2.00700        0.14735
O          2.36747       -1.74940       -0.70545
O         -0.07262       -2.22801       -0.55305
O          1.46301       -3.44189        0.86120
O          1.10848       -1.01688        1.25383
H          2.32468       -3.40323        1.29727
H         -0.19100        0.01676        1.32135
N          2.67088        1.01589       -0.58464
C          3.18382        1.45680        0.73143
C          3.33027        1.64887       -1.74206
H          2.72824       -0.02005       -0.65586
H          2.96645        2.51695        0.86074
H          2.66392        0.88698        1.50029
H          4.25855        1.26975        0.77954
H          3.17821        2.72788       -1.69046
H          4.39782        1.42194       -1.72706
H          2.88156        1.25974       -2.65602
N         -2.94058       -0.57246       -0.31498
C         -3.13896       -2.00217        0.03396
H         -2.19678       -2.52650       -0.12660
H         -3.42926       -2.06937        1.08324
H         -3.92930       -2.41232       -0.59863
C         -4.14704        0.24705       -0.03411
H         -4.42316        0.11372        1.01227
H         -3.89655        1.29295       -0.21128
H         -4.95878       -0.08712       -0.68412
C         -2.47243       -0.40474       -1.71877
H         -2.30067        0.65674       -1.89514
H         -1.53470       -0.94911       -1.82858
H         -3.23979       -0.79617       -2.39082
H         -2.17503       -0.20046        0.29653
