28
2sa1a1dma_33.log	Energy: -999027.1582722
S         -0.65981       -1.54395       -0.22660
O         -0.46954       -0.47547       -1.27426
O         -1.93450       -2.22688       -0.33408
O          0.46564       -2.63048       -0.49666
O         -0.39887       -0.95076        1.11630
H          1.34473       -2.19564       -0.40850
H         -2.60410       -0.41451        2.21577
S          2.52883        0.48332        0.09952
O          3.68672        1.31353        0.23800
O          2.65387       -0.94613       -0.17108
O          1.64817        0.65615        1.40605
O          1.61890        1.11264       -1.03968
H          0.90575       -0.01895        1.39260
H          0.87632        0.47538       -1.24744
N         -2.11010        1.52456       -0.26325
C         -1.23041        2.48193        0.44292
C         -3.07768        2.14365       -1.18999
H         -1.51566        0.84134       -0.77777
H         -1.84230        3.14659        1.05497
H         -0.53983        1.92085        1.07213
H         -0.65834        3.06025       -0.28384
H         -3.73524        2.81136       -0.63089
H         -2.54371        2.70833       -1.95578
H         -3.66589        1.35518       -1.66024
N         -3.32380       -0.23862        1.51815
H         -2.63545        0.92807        0.45259
H         -4.21288       -0.13398        1.99560
H         -3.35519       -1.08994        0.95545
