33
2sa1ma1eda_201.log	Energy: -1058404.9626914
S         -3.05231        0.31560        0.09725
O         -4.41869        0.75875        0.02113
O         -2.12772        0.55873       -0.99665
O         -2.34810        1.04923        1.35288
O         -3.04362       -1.18474        0.50073
H         -2.96473        1.04781        2.09901
H         -2.14718       -1.64706        0.28081
S          0.40505       -1.63604       -0.25130
O         -0.89047       -2.34031       -0.12053
O          1.56113       -2.48019       -0.50637
O          0.28244       -0.70560       -1.56379
O          0.61962       -0.68599        0.88358
H         -0.57171       -0.22484       -1.51851
H          2.19784       -0.64231        1.24979
N          0.63776        2.40668        0.28614
H          0.36604        1.43683        0.44429
C          0.28144        2.81444       -1.07687
H         -0.78417        2.70172       -1.30746
H          0.56836        3.85850       -1.23216
H          0.84490        2.20751       -1.79198
H          0.10293        2.95133        0.95488
H          5.01874       -0.48634        0.27673
H          3.64955       -1.35918       -0.49422
H          4.14351        1.00644       -1.46518
H          2.48384        0.70610       -0.95606
H          4.28342        2.59118        0.19216
H          2.63971        2.37400        0.44187
H          3.59118       -1.23516        2.01764
H          3.38268        0.43691        1.78067
C          3.94373       -0.47902        0.07836
C          3.50877        0.83043       -0.59155
N          3.24263       -0.51374        1.39228
N          3.55830        1.91414        0.38801
