36
2sa1dma1eda_240.log	Energy: -1083059.4239858
S          3.13415       -0.06347        0.03645
O          2.09587        0.39381        0.94390
O          4.51068        0.29142        0.25418
O          3.06016       -1.60782       -0.15481
O          2.66653        0.51546       -1.39208
H          2.10465       -1.96969       -0.08324
H          3.36589        0.35463       -2.04178
S         -0.50897       -1.69405        0.11614
O         -1.74639       -2.44987        0.41462
O          0.70439       -2.53644        0.11095
O         -0.64365       -0.83724       -1.07056
O         -0.37796       -0.71816        1.39405
H         -3.33064       -0.64990       -1.56127
H          0.49312       -0.26509        1.34344
N         -0.73235        3.48581       -0.03648
C          0.29769        2.96914       -0.93380
C         -0.56556        2.99111        1.32511
H         -0.69869        4.49961       -0.03393
H          0.20570        1.88111       -1.01208
H          0.16253        3.39475       -1.93182
H          1.32186        3.18270       -0.58998
H         -0.71650        1.90679        1.33116
H          0.43391        3.18662        1.74512
H         -1.31733        3.44212        1.97950
H         -2.57157        0.38477        1.16691
H         -3.81550        1.62543        0.99565
H         -4.67991       -0.81488        1.03647
H         -5.23233        0.19504       -0.33428
H         -2.97955       -1.77821       -0.35191
H         -4.44049       -1.85416       -1.22138
H         -2.45808        2.26673       -0.69296
H         -1.84281        0.79388       -0.93812
C         -3.31183        0.80627        0.47488
C         -4.36528       -0.25690        0.15263
N         -2.72151        1.28393       -0.77115
N         -3.75963       -1.21673       -0.81547
