36
2sa1dma1eda_164.log	Energy: -1083073.8608138
S         -1.67369       -1.47523       -0.18274
O         -2.89081       -2.28398       -0.14056
O         -0.40044       -2.20027       -0.30794
O         -1.78826       -0.36994       -1.19168
O         -1.65909       -0.73811        1.25007
H         -3.26572       -0.05005       -1.25176
H         -0.82395       -0.20818        1.34404
S          1.87171        0.31501        0.76140
O          3.07654        0.58537        1.57698
O          0.59919        0.66679        1.40637
O          2.01483        0.87518       -0.60963
O          1.91213       -1.28155        0.59796
H          3.70048        0.75753       -0.96234
H          1.05691       -1.62241        0.21220
N          4.66035        0.54262       -0.58986
C          5.66007        1.53110       -1.02849
C          4.98592       -0.87061       -0.88604
H          4.43557        0.62840        0.42758
H          5.79542        1.45306       -2.10834
H          5.30192        2.52859       -0.77370
H          6.60891        1.33943       -0.52486
H          5.09144       -0.99737       -1.96442
H          5.91720       -1.13830       -0.38460
H          4.16663       -1.48811       -0.51378
H         -5.58698        0.69066        0.50120
H         -4.09156       -0.17009        0.97028
H         -3.91934        2.28358        1.48611
H         -2.72331        1.75407        0.30200
H         -5.09021        3.37459       -0.23998
H         -3.57377        3.51635       -0.83468
H         -4.81173       -0.73788       -1.28496
H         -4.63445        0.89201       -1.71210
C         -4.51435        0.58918        0.31137
C         -3.79240        1.92231        0.45891
N         -4.32713        0.13653       -1.09325
N         -4.28607        2.84912       -0.56453
