25
2sa1a1ma_65.log	Energy: -974352.3731572
S         -1.16446       -1.14967       -0.12333
O         -2.48970       -1.65177       -0.50536
O         -0.55911       -0.30031       -1.20380
O         -1.14556       -0.44482        1.17178
O         -0.24906       -2.44559       -0.00622
H         -3.07106        0.23750        1.60256
H          0.67184       -2.15582        0.17611
S          2.64501        0.12735        0.03270
O          4.01211        0.42173       -0.31323
O          2.22075       -1.22855        0.32556
O          2.28681        0.96681        1.36445
O          1.71491        0.75639       -1.04543
H          2.88773        1.72378        1.40943
H          0.78431        0.30646       -1.07541
N         -2.38330        2.05193       -0.75928
H         -1.88804        1.35204       -1.31729
C         -1.39640        2.75935        0.07643
H         -0.63052        3.27145       -0.51486
H         -1.90816        3.49531        0.70248
H         -0.90449        2.02708        0.72100
H         -2.83142        2.69367       -1.40656
N         -3.75954        0.37940        0.85533
H         -3.72573       -0.50423        0.31498
H         -3.33810        1.15450        0.19243
H         -4.68613        0.58885        1.21243
