33
2sa1ma1eda_71.log	Energy: -1058426.4705973
S          2.05255        1.12946       -0.34956
O          1.49527        0.94066        1.01037
O          2.12557       -0.13491       -1.10501
O          1.44755        2.24794       -1.08192
O          3.58977        1.55313       -0.03992
H          4.00079        1.82814       -0.87127
S         -1.33748       -1.60813       -0.68934
O         -2.15853       -2.77691       -0.90765
O         -1.58675       -0.44336       -1.57498
O         -1.20198       -1.17622        0.72755
O          0.19382       -2.09496       -1.08193
H          1.32357       -0.71132        1.39006
H          0.71805       -1.32300       -1.38890
N          1.37121       -1.75577        1.46319
H          0.69217       -2.05096        2.16264
C          2.75535       -2.19806        1.73120
H          2.79294       -3.28611        1.77945
H          3.38263       -1.83919        0.91547
H          3.09802       -1.76701        2.67139
H          1.01558       -2.09701        0.55066
H         -2.28341        3.38928        0.69427
H         -2.80547        2.87539       -0.93452
H         -4.37161        2.13189        0.91143
H         -3.73139        0.79411       -0.04526
H         -3.57139        0.94522        2.64974
H         -2.50545        0.08177        1.73503
H         -0.41146        2.38453       -0.53810
H         -0.84207        1.46449        0.76283
C         -2.46358        2.53057        0.04392
C         -3.46222        1.56792        0.68530
N         -1.17563        1.82233       -0.14038
N         -2.88932        1.00949        1.90631
H         -1.30144        0.98052       -0.76114
