36
2sa1dma1eda_85.log	Energy: -1083086.7991366
S         -1.54393        1.94694        0.13556
O         -0.24090        2.64375        0.22197
O         -2.00532        1.63014       -1.20849
O         -1.62327        0.80603        1.08717
O         -2.63730        3.02390        0.67260
H         -2.33407        3.35705        1.52787
S          0.74762       -1.76730        0.59099
O          2.04811       -2.33799        0.89082
O          0.65499       -1.08923       -0.73817
O         -0.41265       -2.68458        0.75978
O          0.56763       -0.59426        1.67624
H         -1.60960       -2.35672       -0.20106
H         -0.26865       -0.08525        1.49884
N         -2.48469       -2.23883       -0.80366
C         -2.15020       -1.50077       -2.04974
C         -3.53375       -1.58569        0.01973
H         -2.77383       -3.18728       -1.03944
H         -1.91145       -0.46923       -1.78802
H         -1.28241       -1.97318       -2.50806
H         -3.01200       -1.52599       -2.71981
H         -3.13682       -0.63194        0.37135
H         -4.42882       -1.43157       -0.58504
H         -3.75496       -2.22711        0.87330
H          3.33810        2.19150        0.59906
H          2.47581        0.78752        1.28168
H          4.85040        0.19968        0.70163
H          3.67790       -0.74238       -0.21497
H          5.31252        1.45826       -1.24535
H          4.99608        0.00308       -1.91907
H          1.19201        1.95184       -0.44829
H          2.43719        1.52906       -1.55391
C          2.96899        1.18286        0.39265
C          4.08719        0.26388       -0.08356
N          1.95389        1.28388       -0.68595
N          4.59461        0.75261       -1.36912
H          1.48311        0.35098       -0.81414
