25
2sa1a1ma_01.log	Energy: -974371.5838638
S         -2.44597       -0.24787        0.11359
O         -2.30369       -1.57773        0.74472
O         -2.34390        0.87235        1.06917
O         -1.59778       -0.08100       -1.07728
O         -3.95205       -0.19478       -0.48778
H         -4.57556       -0.30019        0.24393
S          2.44599       -0.24788        0.11358
O          2.34410        0.87216        1.06937
O          2.30349       -1.57785        0.74446
O          1.59780       -0.08071       -1.07726
O          3.95207       -0.19494       -0.48779
H          4.57558       -0.30035        0.24392
N          0.00011        2.03339        0.10024
H          0.00049        1.34316       -0.66466
H         -0.85002        1.80867        0.65238
C         -0.00004        3.41774       -0.41221
H         -0.00042        4.11275        0.42690
H          0.89265        3.57143       -1.01767
H         -0.89247        3.57104       -1.01815
H          0.85004        1.80899        0.65277
N         -0.00015       -2.44113       -0.48721
H          0.00000       -3.32309       -0.99067
H         -0.86367       -2.33270        0.09019
H          0.86352       -2.33228        0.08993
H         -0.00052       -1.64770       -1.14247
