18
2sa1a_15.log	Energy: -914175.3730798
S         -2.07569       -0.25081       -0.04802
O         -3.46728       -0.05678       -0.32980
O         -1.15658        0.87339        0.02204
O         -1.90070       -0.96814        1.37546
O         -1.52907       -1.31913       -1.06246
H         -2.60546       -1.62187        1.49907
H         -0.53683       -1.35871       -1.02635
S          2.06053       -0.44785       -0.12201
O          3.45091       -0.37800       -0.46315
O          1.13256       -1.26096       -0.88801
O          1.89611       -0.99077        1.37816
O          1.52288        1.02847       -0.03221
H          2.62595       -0.66074        1.92373
H          0.53129        1.04219        0.01656
N          0.04024        3.94044        0.02907
H         -0.79061        3.38711       -0.14850
H          0.41483        3.66683        0.93020
H          0.73111        3.71587       -0.67791
