31
2sa1a1tma_40.log	Energy: -1023675.1153744
S         -0.39519       -0.23587       -0.78212
O          0.23524        1.00740       -0.23980
O         -0.46450       -1.30779        0.21399
O         -1.69958        0.06366       -1.41451
O          0.50876       -0.71003       -2.00475
H          1.44549       -0.75485       -1.70790
S          3.52354        0.04675        0.26132
O          4.88285        0.49864        0.40064
O          3.05810       -0.55944       -0.97240
O          3.24558       -1.08071        1.37832
O          2.57951        1.21356        0.68084
H          3.73624       -0.84940        2.17975
H          1.62293        1.08914        0.32486
N         -2.43804        2.66506       -0.09310
H         -2.54118        3.66362        0.05876
H         -2.54270        2.49912       -1.09075
H         -1.46500        2.42726        0.09877
N         -3.55979       -0.37563        0.48352
C         -4.82736        0.34164        0.21255
H         -4.62668        1.41006        0.29898
H         -5.15630        0.10421       -0.79993
H         -5.58159        0.02222        0.93542
C         -3.68619       -1.84497        0.31192
H         -4.04835       -2.04829       -0.69614
H         -2.69688       -2.28617        0.43866
H         -4.38916       -2.23272        1.05261
C         -3.00543       -0.02361        1.81728
H         -2.04242       -0.52341        1.92756
H         -2.87197        1.05798        1.84401
H         -3.70694       -0.35338        2.58728
H         -2.85807       -0.06621       -0.24129
