34
2sa1ma1tma_42.log	Energy: -1048333.2538367
S         -0.01931       -0.58219       -0.68479
O          1.24202       -0.85490       -1.37014
O         -1.21232       -1.19796       -1.30764
O          0.04850       -0.85997        0.77528
O         -0.19975        1.01054       -0.83413
H          1.61091       -1.07082        1.19828
H         -1.09591        1.26047       -0.51694
S         -3.83977        0.43882        0.23760
O         -5.22804        0.81244        0.16872
O         -2.79187        1.41700        0.00760
O         -3.53143       -0.11328        1.72054
O         -3.63110       -0.81133       -0.66637
H         -4.28771       -0.63892        2.01796
H         -2.64175       -0.97736       -0.88613
N          2.64831       -1.22523        1.33672
H          3.15830       -0.37240        0.90360
C          3.06787       -2.46895        0.65097
H          4.14531       -2.60263        0.75877
H          2.54224       -3.32248        1.07954
H          2.79674       -2.36524       -0.39953
H          2.83901       -1.26207        2.33536
N          3.91034        0.92011        0.16345
C          2.94047        2.01851        0.22833
H          2.01912        1.73252       -0.28288
H          2.70566        2.23844        1.27416
H          3.33888        2.93226       -0.23955
C          5.14414        1.27107        0.86195
H          4.92629        1.50456        1.90858
H          5.84293        0.42972        0.82940
H          5.63593        2.14634        0.40860
C          4.17856        0.55078       -1.23030
H          4.88160       -0.28744       -1.25679
H          3.24458        0.24437       -1.70565
H          4.61832        1.39156       -1.78943
