36
2sa1dma1eda_226.log	Energy: -1083065.3493444
S         -2.99206        0.40428        0.21165
O         -4.30830        0.98280        0.15439
O         -2.02675        0.65269       -0.84718
O         -2.25034        0.96466        1.53320
O         -3.13545       -1.11541        0.48679
H         -2.88292        0.95835        2.26583
H         -2.28805       -1.66654        0.25096
S          0.20407       -1.88817       -0.30736
O          1.29536       -2.79208       -0.61730
O         -1.13907       -2.49921       -0.16575
O          0.48748       -0.96929        0.83287
O          0.10764       -0.92224       -1.60979
H          2.02448       -0.50758        0.76976
H         -0.68449       -0.35334       -1.49884
N          2.99666       -0.08792        0.75547
C          3.76838       -0.66617       -0.36478
C          3.61152       -0.30221        2.07950
H          2.81428        0.94360        0.62852
H          3.88306       -1.73788       -0.20205
H          3.21498       -0.52099       -1.29132
H          4.74387       -0.17939       -0.42601
H          3.72180       -1.37307        2.25507
H          4.58865        0.18322        2.11720
H          2.95666        0.12032        2.84224
H          1.14079        3.66262       -1.56011
H         -0.17105        2.52120       -1.79581
H         -0.03466        3.14652        0.53766
H          0.31257        1.42353        0.36326
H          2.45916        3.43006        0.52195
H          1.86981        2.65881        1.82132
H          2.68445        1.81973       -1.74188
H          1.42490        0.77093       -2.00639
C          0.82684        2.62855       -1.36056
C          0.69655        2.42577        0.14902
N          1.73006        1.73804       -2.07090
N          2.01116        2.56578        0.81873
