30
2sa1a1eda_01.log	Energy: -1033769.5571591
S         -1.08719        1.79412       -0.29469
O         -0.21316        2.97279       -0.31511
O         -0.80741        0.98393        0.96447
O         -2.50544        1.97650       -0.53113
O         -0.61017        0.81383       -1.48615
H          0.35536        0.62167       -1.38980
S          2.44687       -0.87309       -0.09561
O          2.98406       -0.33880        1.17600
O          1.52352       -2.00119        0.04760
O          1.96184        0.22334       -0.96343
O          3.69724       -1.54722       -0.86921
H          4.36567       -0.86590       -1.02350
H         -1.72769       -1.26290       -1.46835
H         -2.08751       -2.91746       -0.89774
H         -3.47223       -0.32154       -0.03309
H         -4.19098       -1.57031       -1.04709
H         -4.51349       -1.53355        1.57781
H         -4.32631       -2.97913        0.83671
H         -0.21954       -1.98216        0.33456
H         -1.10281       -0.63572        0.74505
C         -2.10428       -1.85607       -0.63494
C         -3.49751       -1.40090       -0.21451
N         -1.18740       -1.66034        0.51693
N         -3.87546       -2.09006        1.02248
H         -1.60001       -2.12809        1.32867
N          1.60902        2.00221        1.59282
H          0.64995        1.57784        1.63864
H          2.29252        1.22019        1.47602
H          1.55289        2.58117        0.74642
H          1.81302        2.57304        2.40713
