39
2sa1eda1tma_96.log	Energy: -1107736.4397966
S          1.46222        2.21219       -0.38833
O          2.98061        1.80617       -0.34839
O          1.37526        3.64322       -0.41357
O          0.79632        1.42788       -1.42724
O          0.90259        1.73621        1.02042
H          0.97653        0.74169        1.11565
S          1.98557       -1.66843        0.34318
O          1.41396       -2.57660       -0.64464
O          0.94166       -0.88221        1.06602
O          2.59954       -2.56352        1.54519
O          3.09647       -0.82981       -0.14282
H          3.37043       -3.03881        1.20497
H          3.07980        0.81046       -0.34139
H         -2.24689       -1.34359       -2.41262
H         -0.58506       -1.96915       -2.26910
H         -2.13487       -3.70517       -1.54682
H         -1.14835       -3.14532       -0.19869
H         -3.97308       -2.50781       -0.63551
H         -3.25863       -3.12244        0.69546
H         -0.56290        0.17469       -1.32507
H         -1.96034       -0.03763       -0.40127
C         -1.47786       -1.68113       -1.71141
C         -1.95939       -2.85494       -0.87318
N         -1.12474       -0.53814       -0.83896
N         -3.12660       -2.47840       -0.07594
H         -0.51437       -0.84842       -0.06538
N         -2.99197        1.04990        0.46518
C         -2.61799        2.43030        0.15622
H         -1.55599        2.58153        0.36169
H         -2.79952        2.63370       -0.90280
H         -3.19470        3.15240        0.75634
C         -4.40290        0.80759        0.18510
H         -4.61067        1.01529       -0.86888
H         -4.63164       -0.24109        0.38840
H         -5.05879        1.44536        0.80099
C         -2.66935        0.71569        1.85198
H         -2.88026       -0.34316        2.02430
H         -1.60665        0.89672        2.03352
H         -3.25188        1.32146        2.56469
