34
2sa1ma1tma_59.log	Energy: -1048332.0536118
S          0.55798       -1.54169        0.35470
O         -0.24154       -0.91978        1.45241
O          0.77411       -0.55880       -0.74569
O          1.78365       -2.17605        0.81625
O         -0.33814       -2.70883       -0.25980
H         -1.17772       -2.31259       -0.57739
S         -3.03687        0.06902       -0.30498
O         -4.43330        0.41827       -0.26724
O         -2.58732       -1.17685       -0.89487
O         -2.27038        1.21841       -1.15226
O         -2.44716        0.23193        1.12465
H         -2.78500        2.03450       -1.07621
H         -1.54195       -0.25966        1.23580
N          0.45261        2.10155        0.55719
H          0.05193        1.63430       -0.25314
C         -0.29917        3.31922        0.85726
H         -1.36755        3.14702        1.05317
H          0.12676        3.80779        1.73817
H         -0.21143        4.02010        0.02134
H          0.32469        1.42904        1.30989
N          3.20561        0.50283       -0.43189
C          3.46353        0.67945        1.02090
H          2.78972        1.45537        1.38438
H          3.25554       -0.26719        1.52127
H          4.50717        0.97016        1.16241
C          4.03516       -0.58536       -1.00596
H          3.80143       -1.50603       -0.46964
H          3.77858       -0.70453       -2.05888
H          5.09143       -0.32791       -0.90055
C          3.33553        1.78094       -1.16979
H          3.10149        1.60532       -2.22051
H          2.61813        2.48188       -0.73909
H          4.35852        2.15202       -1.07165
H          2.20309        0.18059       -0.53438
