33
2sa1ma1eda_55.log	Energy: -1058427.7623758
S          2.22371        0.98130       -0.22897
O          1.74508        2.01575       -1.15460
O          1.61348        1.06572        1.11160
O          2.19448       -0.40392       -0.75668
O          3.81711        1.23226       -0.04784
H          3.96567        2.18470        0.02516
S         -1.40193       -1.43962       -0.78107
O         -1.62784       -0.23807       -1.61848
O         -2.34721       -2.52221       -0.91848
O          0.01660       -2.06364       -1.26609
O         -1.14659       -1.01010        0.63908
H          0.68092       -1.35097       -1.37561
H          0.27954       -1.45227        1.27833
N          1.26092       -1.78336        1.49184
H          1.81426       -1.44023        0.68424
C          1.30025       -3.25560        1.62091
H          2.32662       -3.58694        1.77784
H          0.67382       -3.56108        2.45858
H          0.90588       -3.67821        0.69690
H          1.59689       -1.28392        2.31325
H         -1.82990        3.62989        0.68015
H         -2.45860        3.19615       -0.93444
H         -4.02599        2.59515        0.95518
H         -3.56359        1.21022       -0.03886
H         -3.31956        1.27610        2.63872
H         -2.33525        0.36037        1.68890
H         -0.12526        2.45363       -0.65849
H         -0.55675        1.59876        0.67485
C         -2.11906        2.80383        0.02681
C         -3.19043        1.94081        0.69110
N         -0.91648        1.97284       -0.21302
N         -2.64269        1.31032        1.88830
H         -1.15489        1.14270       -0.81486
