26
2sa1eda_03.log	Energy: -998262.5431047
S         -1.67554       -1.48508       -0.01470
O         -2.19200       -0.52328       -1.00773
O         -0.69508       -2.45441       -0.51370
O         -1.20492       -0.80510        1.22120
O         -2.93236       -2.40379        0.39732
H         -3.70881       -1.83698        0.50575
S         -0.31296        2.23157        0.00205
O         -0.03771        3.63583        0.06128
O          0.80045        1.29457       -0.19308
O         -1.06968        1.81353        1.32082
O         -1.36591        1.99175       -1.14352
H         -1.17237        0.81655        1.35846
H         -1.66447        1.03774       -1.16495
H          2.92829       -2.21414       -1.13110
H          2.10920       -0.75834       -1.74362
H          4.54628       -0.30739       -1.26957
H          3.46681        0.67856       -0.27713
H          5.01840       -1.62391        0.63981
H          4.80777       -0.16670        1.35187
H          0.88457       -1.92100        0.06135
H          2.18921       -1.50102        1.09171
C          2.62582       -1.19257       -0.88690
C          3.81592       -0.34338       -0.45217
N          1.66774       -1.26142        0.24266
N          4.34740       -0.88083        0.80115
H          1.23242       -0.32861        0.36701
