34
2sa1ma1tma_60.log	Energy: -1048323.9524520
S         -3.45964        0.55612       -0.20149
O         -4.74995        1.17974       -0.07358
O         -3.30040       -0.87844       -0.05181
O         -2.88893        0.85954       -1.67773
O         -2.46442        1.31167        0.73313
H         -3.17402        1.74585       -1.94238
H         -1.61173        0.77397        0.89373
S          0.09425       -1.27395        0.51980
O         -0.35362       -0.03555        1.19939
O          1.24860       -1.91159        1.17561
O         -1.07936       -2.34277        0.67669
O          0.31239       -1.06264       -0.93283
H         -1.92487       -1.92865        0.39247
H          1.88172       -1.68384       -1.38073
N          2.77318       -2.11440       -1.03912
H          2.52805       -2.21450       -0.02978
C          3.94742       -1.23422       -1.25625
H          4.82591       -1.69052       -0.79961
H          4.10641       -1.11045       -2.32763
H          3.72452       -0.26469       -0.78698
H          2.88093       -3.03894       -1.45040
N          3.11571        1.59470        0.11194
C          2.87248        1.44921        1.54225
H          1.98205        0.84047        1.71110
H          3.72816        0.95556        2.01389
H          2.72290        2.42688        2.03639
C          4.29558        2.40705       -0.13409
H          5.17013        1.94814        0.33876
H          4.48273        2.47928       -1.21056
H          4.19079        3.43321        0.26477
C          1.94928        2.14807       -0.56407
H          2.13528        2.19642       -1.64192
H          1.08232        1.50721       -0.39233
H          1.70957        3.16754       -0.20952
