39
2sa1eda1tma_10.log	Energy: -1107754.2353941
S          0.46373       -1.96627       -0.20326
O          1.01534       -0.87758       -1.08532
O         -0.67311       -2.66169       -0.82613
O          1.53147       -2.80735        0.32575
O         -0.19783       -1.17580        1.03540
H          0.10231       -0.21403        1.05272
S         -0.19343        2.11800       -0.05863
O          0.56247        1.30256        0.95096
O         -1.60157        1.65752       -0.14042
O          0.00536        3.54481        0.06344
O          0.48064        1.71776       -1.47708
H          0.53376        0.73461       -1.50847
H         -3.82560       -1.98624        0.68915
H         -2.62742       -0.93749        1.47623
H         -4.96814       -0.05032        1.81098
H         -3.95645        1.06778        0.88534
H         -6.09457       -0.60812       -0.19249
H         -5.75294        0.96380       -0.49729
H         -2.04113       -1.54639       -0.82134
H         -3.43171       -0.67768       -1.32321
C         -3.38714       -0.98466        0.69611
C         -4.45287        0.09337        0.85300
N         -2.70747       -0.77527       -0.60543
N         -5.33974        0.05831       -0.31205
H         -2.17598        0.12699       -0.55329
N          3.25400        0.10562        0.15129
C          3.19140       -0.14797        1.61575
H          2.47192        0.54664        2.04744
H          2.86114       -1.17638        1.76887
H          4.18571        0.00666        2.04070
C          4.16323       -0.85296       -0.52751
H          3.79014       -1.86088       -0.34047
H          4.14618       -0.65148       -1.59867
H          5.17354       -0.72686       -0.13278
C          3.58265        1.52124       -0.15317
H          3.50690        1.67674       -1.22921
H          2.85919        2.15923        0.35310
H          4.59748        1.72897        0.19310
H          2.30750       -0.09983       -0.24471
