36
2sa1dma1eda_32.log	Energy: -1083092.8706923
S          0.12195        1.94144       -0.50291
O          1.41729        2.41655       -0.96959
O         -0.92870        2.95755       -0.30304
O         -0.53199        1.00591       -1.64909
O          0.22031        1.04376        0.69461
H         -2.26419        0.18978        0.29315
S         -0.71841       -2.22064       -0.15545
O          0.04734       -2.54043        1.05209
O         -2.00570       -1.53412        0.07142
O          0.08914       -1.57027       -1.21539
O         -1.10476       -3.68786       -0.73154
H         -0.22719        0.06932       -1.55279
H         -1.64062       -3.56860       -1.52730
N         -2.76619        1.06115        0.56134
C         -2.79473        1.12301        2.03779
C         -4.09037        1.04730       -0.08965
H         -2.19853        1.86416        0.20530
H         -3.29669        0.23436        2.42253
H         -1.76145        1.15099        2.38313
H         -3.32198        2.02527        2.35143
H         -4.64444        0.16983        0.24625
H         -4.63141        1.95888        0.16864
H         -3.94026        0.99783       -1.16794
H          3.61116       -1.72581       -0.20328
H          2.40078       -0.79213       -1.10451
H          4.64586        0.37942       -1.06244
H          3.36698        1.32751       -0.29940
H          5.52557       -0.09097        1.07644
H          4.92062        1.40265        1.35538
H          1.61588       -1.59575        1.10312
H          2.79475       -0.55979        1.78290
C          3.04914       -0.78770       -0.22804
C          3.97449        0.42333       -0.19604
N          2.18719       -0.74257        0.97823
N          4.67231        0.45675        1.09303
H          1.48083        0.03861        0.89493
