36
2sa1dma1eda_03.log	Energy: -1083094.0643220
S          0.76108        1.71336       -0.65716
O          0.61058        1.02532        0.66851
O          2.04486        2.36104       -0.85153
O          0.75546        0.51464       -1.74067
O         -0.44742        2.52900       -0.91834
H         -1.64600        1.85006        0.03224
S         -1.55625       -1.88804       -0.13517
O         -2.20740       -1.27264        1.04088
O         -0.31448       -2.60877        0.15284
O         -2.53447       -3.08291       -0.63142
O         -1.48627       -0.93319       -1.26578
H         -3.34857       -2.68804       -0.97080
H         -0.08155       -0.00395       -1.65120
N         -2.36232        1.48292        0.70671
C         -3.70596        1.65011        0.12158
C         -2.15721        2.16064        2.00293
H         -2.18056        0.46495        0.82648
H         -3.89243        2.71034       -0.05586
H         -3.73502        1.10772       -0.82349
H         -4.45337        1.24665        0.80671
H         -2.32786        3.23089        1.87719
H         -2.84966        1.75170        2.74062
H         -1.12517        1.98440        2.30536
H          3.36567       -2.33510       -0.32928
H          2.46272       -1.06050       -1.19258
H          4.84144       -0.36594       -0.76183
H          3.66766        0.69710        0.01041
H          5.37167       -1.26598        1.35120
H          5.00143        0.26300        1.79648
H          1.22681       -1.94985        0.71523
H          2.49388       -1.38385        1.72144
C          2.98164       -1.31296       -0.26712
C          4.09076       -0.31213        0.03605
N          1.99202       -1.26371        0.83819
N          4.62718       -0.57775        1.37412
H          1.51110       -0.32280        0.84944
