33
2sa1ma1eda_28.log	Energy: -1058427.8421636
S         -1.78041       -1.73904       -0.14996
O         -2.34072       -1.43838        1.17629
O         -1.80444       -0.59227       -1.07897
O         -0.47861       -2.43377       -0.12583
O         -2.83954       -2.81456       -0.73891
H         -2.53012       -3.09820       -1.61001
S          0.60081        2.07872       -0.41183
O          0.79108        3.51032       -0.34199
O          1.69966        1.29833       -1.03638
O          0.22302        1.41742        0.88400
O         -0.69798        1.88078       -1.35037
H         -1.30388        1.43160        1.32637
H         -0.96015        0.93252       -1.35057
N         -2.31809        1.26793        1.60621
H         -2.44330        0.23266        1.55765
C         -3.25359        1.95565        0.68397
H         -4.27649        1.81952        1.03554
H         -3.00052        3.01421        0.63546
H         -3.13488        1.50956       -0.30168
H         -2.43671        1.57628        2.56830
H          3.08292       -2.78095        0.01306
H          2.85900       -1.81976       -1.46448
H          5.16406       -1.47826       -0.53834
H          4.21788        0.01550       -0.51147
H          4.90573       -1.62157        1.80547
H          4.91032        0.00954        1.64274
H          1.00133       -1.59596        0.17033
H          2.12586       -0.87274        1.21398
C          3.03616       -1.76513       -0.38892
C          4.30604       -0.98110       -0.06823
N          1.89368       -1.06636        0.23571
N          4.42201       -0.83787        1.38227
H          1.75805       -0.13413       -0.23673
