37
2sa1dma1tma_29.log	Energy: -1073011.0892626
S          0.89740        0.61832        0.51443
O         -0.33091        0.82461        1.32591
O          1.62730        1.84142        0.17709
O          1.76679       -0.42919        1.12454
O          0.41524        0.05307       -0.89470
H         -0.18639       -0.76911       -0.76383
S         -2.53397       -1.64604       -0.15206
O         -3.39248       -2.80126       -0.04809
O         -1.10237       -1.93130       -0.45972
O         -3.05382       -0.55621       -1.02894
O         -2.49981       -0.97865        1.33957
H         -2.65308        0.90223       -0.60782
H         -1.62786       -0.55822        1.48360
N         -2.39799        1.85269       -0.19734
C         -3.56995        2.36142        0.54131
C         -1.88445        2.74006       -1.25877
H         -1.62714        1.63659        0.46446
H         -4.38976        2.52202       -0.16041
H         -3.86119        1.60866        1.27424
H         -3.31534        3.29817        1.04042
H         -2.66161        2.88706       -2.01044
H         -1.59375        3.69874       -0.82580
H         -1.01490        2.26134       -1.71019
N          4.04378       -0.39118       -0.14069
C          3.70470       -0.17015       -1.56962
H          3.07112       -0.98894       -1.91073
H          3.14824        0.76386       -1.64899
H          4.62626       -0.12679       -2.15525
C          4.76831        0.76779        0.43484
H          4.12575        1.64439        0.34181
H          4.95932        0.57195        1.49035
H          5.71121        0.91144       -0.09846
C          4.75459       -1.67132        0.07115
H          4.90861       -1.81808        1.14048
H          4.14013       -2.48320       -0.31891
H          5.71668       -1.64654       -0.44617
H          3.10953       -0.44911        0.39123
