30
2sa1a1eda_94.log	Energy: -1033763.0496600
S         -2.46840       -0.53871       -0.08148
O         -2.20434        0.40257       -1.19359
O         -2.35041       -1.95548       -0.49384
O         -1.75137       -0.22364        1.15380
O         -4.03036       -0.31680        0.30624
H         -4.56849       -0.54546       -0.46383
S          2.34502       -0.71052       -0.21967
O          2.18946        0.28999       -1.28968
O          1.65507       -0.37711        1.03505
O          2.07454       -2.09490       -0.66767
O          3.91527       -0.66621        0.19949
H          4.44433       -0.73509       -0.60671
H          0.14097        4.00713       -0.70547
H         -1.48985        3.28120       -0.56999
H         -0.50023        3.56006        1.67601
H         -0.65321        1.84310        1.30397
H          1.73548        3.23003        1.86385
H          1.57764        1.63268        1.45149
H          0.06024        2.26899       -2.26659
H          0.92289        1.59823       -1.02755
C         -0.42140        3.11937       -0.40815
C         -0.10811        2.75746        1.04209
N         -0.00412        1.99282       -1.28885
N          1.32874        2.58529        1.20147
H         -0.72443        1.23497       -1.23620
N         -0.09663       -2.66308        0.89510
H         -0.02726       -1.76958        1.39965
H         -0.09635       -3.44311        1.54482
H         -0.98169       -2.62069        0.34116
H          0.73223       -2.68842        0.25775
