37
2sa1dma1tma_71.log	Energy: -1072983.3267126
S          1.42111        0.23686       -0.58085
O          2.42186        1.26863       -0.83610
O          0.29634        0.18408       -1.53251
O          2.04138       -1.11344       -0.39038
O          0.81364        0.63837        0.85187
H          3.43112       -0.93870        0.16057
H          0.01056        0.09358        1.02071
S         -2.25433       -1.52660        0.16793
O         -3.64505       -1.27218        0.45570
O         -1.21529       -1.15110        1.10875
O         -2.07759       -3.12237        0.02014
O         -1.92894       -1.02239       -1.26649
H         -2.88670       -3.48552       -0.36673
H         -1.02794       -0.54565       -1.33360
N          4.42364       -0.70655        0.54129
C          4.27188        0.29677        1.62538
C          5.25103       -0.23539       -0.59599
H          4.80879       -1.56994        0.92123
H          3.83298        1.19293        1.18620
H          3.59070       -0.10145        2.37733
H          5.24643        0.51467        2.06569
H          4.74570        0.62808       -1.03014
H          6.24893        0.03109       -0.24279
H          5.31076       -1.03081       -1.33888
N         -2.24202        1.86723        0.12430
C         -3.48559        1.89225       -0.62650
H         -3.27986        1.70216       -1.68390
H         -4.15410        1.10732       -0.26418
H         -4.00383        2.86810       -0.54169
C         -2.48618        2.03067        1.54548
H         -3.14575        1.23374        1.90076
H         -1.54009        1.96540        2.09169
H         -2.95545        3.00604        1.78392
C         -1.31976        2.87489       -0.37049
H         -0.37683        2.81774        0.17866
H         -1.10502        2.69101       -1.42644
H         -1.72932        3.89951       -0.26614
