26
2sa1eda_39.log	Energy: -998254.8654510
S         -1.43148       -1.78677       -0.00680
O         -0.69544       -1.75054       -1.26892
O         -0.62517       -2.16112        1.16552
O         -2.24996       -0.55571        0.21254
O         -2.51765       -2.98152       -0.07876
H         -3.15412       -2.77262       -0.77634
S         -0.50696        2.39760       -0.10427
O          0.68515        1.56391       -0.17767
O         -0.46256        3.74256       -0.61166
O         -1.73757        1.68654       -0.71096
O         -0.82346        2.42169        1.47874
H         -1.89793        0.71344       -0.35204
H         -1.59535        2.98283        1.64282
H          2.60866       -2.35263       -0.33385
H          1.60562       -1.23270       -1.27200
H          4.07606       -0.80996       -1.65565
H          3.27323        0.58211       -0.92254
H          5.04375       -1.29343        0.45735
H          5.03985        0.34094        0.49712
H          0.92941       -1.44100        1.07714
H          2.44961       -0.73954        1.48907
C          2.35057       -1.30034       -0.47855
C          3.58663       -0.45073       -0.74205
N          1.71654       -0.82202        0.77783
N          4.44342       -0.47581        0.44600
H          1.30660        0.11393        0.61237
