36
2sa1dma1eda_243.log	Energy: -1083057.2136653
S         -3.07716       -0.76408        0.42866
O         -1.86700       -0.98440        1.19868
O         -4.03862        0.24234        0.80732
O         -2.76140       -0.63829       -1.09308
O         -3.83284       -2.18704        0.49178
H         -1.76801       -0.69467       -1.28612
H         -4.76553       -2.04757        0.27588
S          0.94517       -0.37964       -0.99062
O         -0.26585       -0.91462       -1.63408
O          1.23098        1.04006       -1.25401
O          0.72832       -0.51161        0.59974
O          2.15460       -1.21072       -1.23392
H         -0.23224       -0.57845        0.81591
H          3.36918       -0.22386       -1.07271
N         -1.41322        1.93690        0.02348
C         -1.31516        2.38245        1.40127
C         -2.40540        2.67409       -0.74070
H         -0.50779        2.00266       -0.43210
H         -2.25389        2.16095        1.92034
H         -0.51457        1.83478        1.90776
H         -1.11781        3.46528        1.50435
H         -3.39698        2.48994       -0.31540
H         -2.23015        3.76498       -0.74888
H         -2.41141        2.31386       -1.77293
H          4.48239        1.68649        0.93475
H          2.79590        1.11798        0.78499
H          4.05687       -0.20626        2.52252
H          3.49796       -1.20203        1.17772
H          6.25526       -0.38164        1.68870
H          5.67881       -1.82651        1.18633
H          3.91133        1.33786       -1.37748
H          5.02344        0.16243       -0.86789
C          3.84356        0.84184        0.66167
C          4.19919       -0.40991        1.45499
N          4.07139        0.53164       -0.77673
N          5.55903       -0.82474        1.09940
