33
2sa1ma1eda_17.log	Energy: -1058431.2188548
S         -1.97674       -1.44501       -0.22350
O         -2.23843       -1.12063        1.17343
O         -1.93186       -0.23108       -1.09563
O         -0.83857       -2.34641       -0.48218
O         -3.29728       -2.25911       -0.69189
H         -3.15070       -2.58996       -1.58874
S          0.93320        1.81054       -0.50037
O          0.61227        1.06377        0.77680
O          2.35188        2.06790       -0.66584
O          0.60115        0.73120       -1.66495
O          0.00362        2.93594       -0.66805
H         -0.32542        0.40860       -1.57080
H         -1.72913        2.68822        0.36961
N         -2.04199        1.81725        0.81517
H         -2.28279        1.15927        0.05121
C         -3.12048        1.95629        1.81200
H         -3.33932        0.96596        2.20947
H         -2.78978        2.62141        2.60937
H         -4.00653        2.36961        1.33066
H         -1.16472        1.41711        1.19813
H          2.84659       -2.50541       -0.70296
H          2.30891       -0.90928       -1.29083
H          4.70358       -0.84391       -0.52179
H          3.66224        0.23031        0.40665
H          4.77566       -2.31831        1.32496
H          4.67924       -0.88955        2.11283
H          0.72186       -1.98027        0.25868
H          1.93685       -1.85713        1.45694
C          2.65527       -1.46656       -0.41957
C          3.88514       -0.82220        0.20804
N          1.56268       -1.46849        0.58674
N          4.19196       -1.50160        1.46997
H          1.23973       -0.48309        0.76929
