21
2sa1ma_19.log	Energy: -938854.6820988
S          1.17182       -0.62407        0.12941
O          2.44872       -1.31865        0.38440
O          0.25290       -0.62435        1.28332
O          1.38711        0.73864       -0.42656
O          0.48972       -1.49813       -1.01959
H          3.04112        0.93841       -0.78493
H         -0.44445       -1.21056       -1.13132
S         -2.82357        0.20249       -0.07020
O         -4.25674        0.14526        0.03658
O         -2.11045       -0.60309       -1.04374
O         -2.39269        1.71241       -0.42956
O         -2.22754       -0.01397        1.35627
H         -2.97278        2.32316        0.04744
H         -1.23260       -0.22656        1.32265
N          4.01646        0.57149       -0.63149
H          3.76640       -0.39208       -0.30705
C          4.71274        1.32586        0.43530
H          5.67285        0.85699        0.64802
H          4.85811        2.35796        0.11821
H          4.08372        1.29850        1.32454
H          4.53578        0.53888       -1.50532
