30
2sa1a1eda_71.log	Energy: -1033763.8591786
S          2.50693       -0.63598       -0.25032
O          2.07396       -1.92207       -0.78786
O          2.49231        0.51328       -1.17358
O          1.82807       -0.30585        1.03897
O          4.07232       -0.86744        0.11160
H          4.50244       -0.00229        0.13944
S         -2.60336       -0.49897       -0.02433
O         -2.54542       -1.33881        1.19352
O         -3.08898        0.86073        0.19016
O         -1.34185       -0.59148       -0.79854
O         -3.66164       -1.22722       -1.02323
H         -4.54752       -1.12077       -0.65069
H         -0.16212        3.76453       -0.82736
H         -1.67434        2.80583       -0.65785
H         -0.78107        3.41437        1.54072
H         -0.74609        1.67420        1.32451
H          1.40229        3.20782        2.02383
H          1.53822        1.71129        1.35000
H         -0.50065        0.82208       -1.11696
H         -0.06349        1.91217       -2.29346
C         -0.59665        2.82361       -0.48365
C         -0.28103        2.61056        0.99228
N          0.00290        1.72615       -1.29468
N          1.15819        2.64584        1.21993
H          1.00824        1.55847       -1.08470
N          0.00072       -2.35011        1.10869
H          0.63255       -1.55052        1.33797
H          0.19739       -2.52909        0.11842
H          0.24126       -3.16570        1.66410
H         -1.00110       -2.07044        1.22873
