30
2sa1a1eda_130.log	Energy: -1033756.1836773
S          1.11956        1.97181       -0.12469
O          2.14926        0.92346       -0.39146
O         -0.01500        1.90103       -1.05418
O          0.77608        2.06340        1.29514
O          1.82586        3.36722       -0.54159
H          2.59520        3.50305        0.02857
S          1.39288       -2.07873       -0.07092
O          1.62995       -3.49204       -0.10803
O          0.08787       -1.57329        0.33813
O          2.49794       -1.41705        0.85919
O          1.73405       -1.48533       -1.50441
H          2.47332       -0.43879        0.71247
H          1.79221       -0.50115       -1.42568
H         -2.72015       -0.13862       -1.85223
H         -1.85400       -1.16222       -0.68682
H         -4.25620       -1.86443       -0.88905
H         -3.88498       -1.28711        0.73735
H         -5.35868        0.21433       -1.29959
H         -5.77904       -0.09089        0.24975
H         -1.50480        1.28009       -0.42784
H         -3.13423        1.36396        0.04810
C         -2.65781       -0.43398       -0.80089
C         -3.99394       -0.97248       -0.30564
N         -2.30487        0.76608       -0.00662
N         -4.99273        0.09642       -0.36047
H         -2.00190        0.49495        0.98324
N         -1.18582        0.06642        2.43111
H         -0.44990        0.77400        2.41780
H         -0.73202       -0.81949        2.21725
H         -1.57745        0.02010        3.36517
