33
2sa1ma1eda_121.log	Energy: -1058415.2359439
S          2.13013       -1.52345       -0.05845
O          3.24167       -1.16525       -0.93335
O          0.79043       -1.41401       -0.67247
O          2.24583       -3.12008        0.23792
O          2.18858       -0.86769        1.27272
H          3.15671       -3.30724        0.50134
H          1.85882        0.77126        1.27628
S         -1.79875        0.73171        0.55647
O         -1.71183        1.09557       -0.86615
O         -0.90479        1.48425        1.43890
O         -3.20163        0.65536        1.05566
O         -1.37285       -0.83592        0.63741
H         -3.84904       -0.62467        0.45534
H         -0.50052       -1.01298        0.17097
N         -3.91878       -1.57129       -0.05986
H         -3.01031       -1.98615        0.18069
C         -4.01527       -1.34047       -1.52418
H         -3.93714       -2.28884       -2.05515
H         -4.96875       -0.86001       -1.74035
H         -3.19887       -0.67295       -1.80494
H         -4.67512       -2.14483        0.30474
H          3.00420        3.11590       -0.06560
H          3.39326        1.37610       -0.24471
H          2.18791        2.17656       -2.24960
H          1.18354        1.03225       -1.37615
H          0.66102        3.83183       -1.72929
H         -0.36333        2.61089       -1.26171
H          2.23541        2.26671        1.92026
H          0.84183        2.09031        1.02419
C          2.58890        2.10934       -0.15082
C          1.61549        2.03753       -1.32528
N          1.83791        1.80796        1.10452
N          0.55805        3.02011       -1.13580
