33
2sa1ma1eda_133.log	Energy: -1058410.1139669
S          0.67645        1.98925        0.16231
O         -0.73062        2.21271       -0.26631
O          0.78873        1.52421        1.54694
O          1.47169        1.22730       -0.81189
O          1.36252        3.45586        0.08945
H          0.87976        4.04485        0.68544
S         -2.79421       -0.54836       -0.23379
O         -3.99883       -1.19165        0.22356
O         -1.51004       -1.21269       -0.12228
O         -2.92606       -0.25377       -1.81741
O         -2.74348        0.87009        0.39683
H         -3.81024        0.09607       -1.99929
H         -1.88252        1.38864        0.15802
N          1.20843       -1.43740        1.79862
H          2.18255       -1.59830        2.04066
C          0.29540       -2.26364        2.59348
H          0.37451       -2.07725        3.67062
H         -0.72857       -2.06058        2.27436
H          0.50277       -3.32136        2.40923
H          1.02686       -0.44227        1.94717
H          2.51887       -3.07640       -0.87252
H          2.12507       -2.44676       -2.48980
H          4.38733       -1.77477       -1.71121
H          3.35149       -0.39385       -2.08603
H          4.69433       -0.48763        0.12725
H          3.17117        0.09446        0.14512
H          0.23187       -1.98844       -1.15635
H          1.12737       -1.54950        0.23189
C          2.31735       -2.16978       -1.44952
C          3.50800       -1.21749       -1.37459
N          1.10396       -1.54035       -0.88022
N          3.72442       -0.74686       -0.00852
H          1.03801       -0.54009       -1.12745
