30
2sa1a1eda_191.log	Energy: -1033743.5838896
S         -0.34871        1.10598        0.59661
O         -1.53049        1.94669        0.73030
O          0.94001        1.75698        0.91263
O         -0.48679       -0.20666        1.28978
O         -0.29538        0.75157       -0.98224
H         -2.00053       -0.58248        1.49112
H          0.56984        0.32929       -1.18358
S          3.27379       -0.46535       -0.33874
O          4.62923       -0.66273       -0.77771
O          2.18675       -0.37167       -1.29766
O          2.84834       -1.70521        0.59855
O          3.25291        0.75017        0.63450
H          3.59099       -1.92710        1.17848
H          2.30851        1.12391        0.77385
H         -4.80730       -0.57667        0.44016
H         -3.51907        0.61312        0.08434
H         -3.74563       -1.07363       -1.75073
H         -2.15522       -1.09532       -0.99771
H         -4.22893       -3.12410       -0.68441
H         -2.61131       -3.30666       -0.82851
H         -3.44157       -0.43964        2.37534
H         -3.09043       -1.87977        1.57100
C         -3.73348       -0.43506        0.28857
C         -3.21098       -1.32697       -0.83028
N         -3.03565       -0.85237        1.53939
N         -3.33412       -2.72987       -0.41559
N         -3.05356        1.84723       -1.97637
H         -2.90391        2.55907       -1.26620
H         -3.36287        2.31473       -2.82192
H         -2.13043        1.45940       -2.15423
