30
2sa1a1eda_188.log	Energy: -1033746.8644965
S         -0.41909       -1.16722       -0.48031
O         -1.66576       -1.63566       -1.09621
O         -0.02253        0.19541       -0.94370
O         -0.42842       -1.25780        0.99707
O          0.69712       -2.16865       -1.02237
H         -2.05284       -1.75797        1.52794
H          1.58433       -1.83143       -0.76582
S          3.27162        0.43884        0.14113
O          4.53619        1.10208       -0.03837
O          3.05937       -0.91567       -0.33303
O          2.96026        0.35435        1.71917
O          2.15155        1.38059       -0.39992
H          3.29707        1.15594        2.14433
H          1.27904        0.87497       -0.58465
H         -3.17493        0.18679       -0.87112
H         -4.80451        0.86324       -0.85645
H         -3.09032        2.44149       -1.79016
H         -3.89055        3.11368       -0.35845
H         -1.24217        1.83661       -0.34248
H         -1.60079        3.39845        0.03081
H         -3.09223        1.18221        1.45100
H         -4.72472        1.09379        1.43408
C         -3.80890        0.95405       -0.41298
C         -3.20449        2.32962       -0.70195
N         -3.88560        0.67976        1.03815
N         -1.95715        2.45078        0.04547
N         -3.05686       -1.89441        1.28166
H         -3.52461       -0.91010        1.27861
H         -3.52126       -2.56043        1.89051
H         -3.00675       -2.22544        0.31041
