34
2sa1ma1tma_17.log	Energy: -1048351.4967417
S         -1.94687       -1.06987       -0.39225
O         -2.25562       -0.84940        1.02718
O         -0.77142       -1.88377       -0.68059
O         -3.15973       -1.96349       -1.00753
O         -1.98853        0.21702       -1.15444
H         -3.99008       -1.49107       -0.86349
H         -0.38069        1.03959       -1.61249
S          1.38366        1.66171       -0.48900
O          0.75640        0.79372        0.58779
O          0.18571        1.84081       -1.56708
O          1.62877        3.01839       -0.02770
O          2.48341        0.94596       -1.13463
H         -1.31542        3.01679        0.47125
H          1.33915       -0.82913        0.44597
N         -1.59102        2.10508        0.83719
H         -2.00116        1.54894        0.05852
C         -2.48304        2.18381        2.01220
H         -2.72633        1.16273        2.30340
H         -1.96860        2.70098        2.82202
H         -3.39166        2.72377        1.74529
H         -0.69888        1.58657        1.02846
N          1.97586       -1.65095        0.57807
C          1.28643       -2.60594        1.48094
H          1.06064       -2.09645        2.41826
H          0.35956       -2.91810        1.00203
H          1.94566       -3.45742        1.66485
C          2.25415       -2.24117       -0.75832
H          1.31712       -2.60738       -1.17335
H          2.65736       -1.45172       -1.39255
H          2.97505       -3.05324       -0.63657
C          3.21116       -1.10045        1.19177
H          3.63563       -0.37098        0.50206
H          2.94568       -0.60535        2.12597
H          3.91049       -1.91814        1.37982
