33
2sa1ma1eda_62.log	Energy: -1058427.2068040
S          2.21454        0.75915       -0.43842
O          1.74467        1.74695       -1.41758
O          1.66288        0.96590        0.91300
O          2.10362       -0.65643       -0.86702
O          3.82388        0.94740       -0.33371
H          4.01775        1.89423       -0.35174
S         -1.55306       -1.46575       -0.73137
O         -1.76610       -0.26944       -1.57924
O         -2.56404       -2.49499       -0.78642
O         -0.20434       -2.17967       -1.28861
O         -1.18028       -1.02661        0.65985
H          0.49744       -1.51142       -1.43521
H          0.21297       -1.66702        1.20456
N          1.18357       -2.06133        1.35597
H          1.12925       -3.06609        1.19953
C          1.73100       -1.71098        2.68512
H          2.72398       -2.14590        2.79953
H          1.79373       -0.62463        2.73597
H          1.06442       -2.09113        3.45908
H          1.73855       -1.64327        0.58251
H         -1.60683        3.66131        0.61444
H         -2.38361        3.22077       -0.93234
H         -3.81922        2.74843        1.09510
H         -3.51267        1.32048        0.10165
H         -3.04989        1.41995        2.74519
H         -2.18105        0.44612        1.74210
H         -0.07673        2.36613       -0.82181
H         -0.43409        1.57207        0.56751
C         -1.98726        2.83523        0.00980
C         -3.04338        2.04479        0.78070
N         -0.85007        1.93809       -0.29973
N         -2.43168        1.41212        1.94507
H         -1.17493        1.10421       -0.85441
