21
2sa1ma_26.log	Energy: -938837.0685982
S          2.12268       -0.36830       -0.08559
O          2.86271        0.77372       -0.56227
O          1.18363       -1.07002       -0.94356
O          3.17979       -1.48235        0.36072
O          1.44418       -0.03800        1.28966
H          4.02564       -1.05174        0.55216
H          0.45291       -0.11120        1.22780
S         -2.11812       -0.32824        0.06866
O         -2.86200        0.88694       -0.15343
O         -1.17702       -0.44107        1.17014
O         -3.17212       -1.50703        0.30585
O         -1.44058       -0.80423       -1.26322
H         -4.02460       -1.24249       -0.06935
H         -0.44839       -0.80983       -1.17679
N         -0.01719        1.93986       -0.68249
H          0.78774        2.13310       -1.27049
C         -0.00651        2.81632        0.49101
H         -0.05991        3.88797        0.25559
H         -0.85669        2.56473        1.13082
H          0.90853        2.63590        1.06062
H         -0.84748        2.11750       -1.23923
