37
2sa1dma1tma_02.log	Energy: -1073020.0964394
S         -0.35474       -2.04889        0.06543
O         -0.81564       -1.05084        1.09725
O          1.10455       -2.25581        0.15731
O         -1.17791       -3.23794        0.00531
O         -0.63136       -1.28237       -1.33459
H         -0.11582       -0.43025       -1.31957
S          0.75574        2.03055       -0.03719
O          0.71366        0.95708       -1.07709
O          2.08992        2.04210        0.60667
O          0.22631        3.31230       -0.45768
O         -0.29192        1.54281        1.10827
H         -0.21280        0.56838        1.24461
N          3.12406       -0.43378        0.10323
C          3.65464       -0.43704       -1.27668
C          4.07650       -0.89996        1.12989
H          2.79214        0.53483        0.33344
H          3.91320       -1.45890       -1.55828
H          2.87634       -0.04839       -1.93289
H          4.53621        0.20420       -1.32449
H          4.35373       -1.93416        0.92096
H          4.96223       -0.26276        1.11960
H          3.59311       -0.84218        2.10494
H          2.27905       -1.04989        0.12814
N         -2.95008        0.33124        0.05691
C         -3.48070        1.01039        1.26533
H         -3.57367        0.27357        2.06361
H         -2.77111        1.78445        1.55792
H         -4.45536        1.44507        1.03448
C         -2.72146        1.28892       -1.05674
H         -2.05892        2.08437       -0.71507
H         -2.25428        0.75389       -1.88251
H         -3.68588        1.69850       -1.36547
C         -3.79102       -0.82015       -0.36147
H         -3.31410       -1.30001       -1.21589
H         -3.84087       -1.53359        0.46109
H         -4.78764       -0.45799       -0.62201
H         -2.03801       -0.08961        0.34889
