37
2sa1dma1tma_54.log	Energy: -1072995.9680791
S         -3.98222        0.18665        0.45756
O         -5.38302        0.45876        0.64589
O         -2.97961        1.18979        0.76780
O         -3.57570       -1.06497        1.38881
O         -3.78512       -0.35700       -0.98767
H         -4.29581       -1.71128        1.36926
H         -2.80487       -0.31128       -1.29500
S         -0.19730        0.03016       -0.97026
O          1.04503        0.22575       -1.71417
O         -1.40054       -0.16801       -1.81037
O         -0.07891       -1.01290        0.08283
O         -0.40822        1.42871       -0.19998
H          1.52542       -1.36309        0.22573
H         -1.29875        1.42861        0.21592
N          2.56469       -1.52720        0.26387
C          2.98508       -2.19881       -0.98172
C          2.89927       -2.25912        1.49729
H          3.01310       -0.55072        0.29684
H          2.50885       -3.17880       -1.04797
H          2.66273       -1.57740       -1.81766
H          4.07135       -2.31526       -0.98369
H          2.41557       -3.23746        1.48854
H          3.98173       -2.38556        1.56991
H          2.53771       -1.68861        2.35386
N          3.73506        0.97338        0.42310
C          2.77628        1.77722        1.18603
H          1.82038        1.81350        0.65887
H          2.61536        1.32201        2.16833
H          3.14143        2.80575        1.33526
C          5.01348        0.87548        1.12120
H          4.86406        0.43211        2.11060
H          5.69747        0.23869        0.55190
H          5.48807        1.86139        1.25318
C          3.90875        1.51805       -0.92623
H          4.59226        0.87885       -1.49342
H          2.94239        1.53149       -1.43358
H          4.32726        2.53676       -0.89683
