36
2sa1dma1eda_205.log	Energy: -1083072.8045271
S          2.14490       -1.58570        0.32666
O          3.40756       -2.29810        0.37405
O          0.91611       -2.39410        0.28252
O          2.04844       -0.47938        1.33104
O          2.21334       -0.79252       -1.11221
H          3.12320        0.66723        0.88609
H          1.31378       -0.43068       -1.32368
S         -1.45861       -0.02786       -0.88398
O         -2.66776        0.16121       -1.68181
O         -0.18110        0.31484       -1.53295
O         -1.58099        0.65316        0.45453
O         -1.43941       -1.59235       -0.56786
H         -2.98497        0.44928        0.94801
H         -0.55113       -1.87990       -0.20775
N         -4.03672        0.28477        1.18731
C         -4.37106       -1.12561        0.86160
C         -4.83195        1.27392        0.42033
H         -4.14869        0.44232        2.18761
H         -4.19320       -1.27245       -0.20389
H         -3.70849       -1.78194        1.42473
H         -5.41559       -1.32117        1.11117
H         -4.59390        1.13211       -0.63464
H         -5.89626        1.11861        0.60679
H         -4.53563        2.27712        0.72738
H          1.51081        2.11509       -1.12440
H          1.53702        3.75830       -0.48073
H          3.82298        3.08935       -0.77074
H          3.47882        3.14915        0.98307
H          3.51068        0.68640       -0.68088
H          4.68315        1.14005        0.41513
H          0.00304        2.53116        0.78063
H          1.02276        1.34150        1.10768
C          1.75245        2.71413       -0.23139
C          3.24847        2.64185        0.04409
N          0.98670        2.34829        0.94954
N          3.69631        1.22374        0.18019
