33
2sa1ma1eda_124.log	Energy: -1058414.4883856
S          0.84452        1.02416        0.42692
O          0.46921        1.65595       -0.84628
O         -0.20591        1.08939        1.46705
O          1.31344       -0.38877        0.20436
O          2.06772        1.79270        1.04338
H          2.87650        1.69215        0.40057
S         -0.74052       -2.72932       -0.12890
O         -1.80373       -1.74594        0.03172
O         -1.07426       -4.10720       -0.34252
O          0.20309       -2.25642       -1.31625
O          0.22009       -2.64537        1.13427
H          0.63885       -1.40880       -1.03742
H          0.65594       -1.75549        1.13412
N          4.03148        1.36281       -0.63174
H          3.56565        1.27736       -1.53148
C          4.65702        0.08692       -0.24937
H          5.38949       -0.27034       -0.98132
H          5.15239        0.21220        0.71563
H          3.86938       -0.65924       -0.12990
H          4.72520        2.09820       -0.72513
H         -4.36299        1.93631        0.23205
H         -3.32665        2.38211        1.61676
H         -3.06350        3.92431       -0.42493
H         -1.56153        3.17437        0.12852
H         -2.78237        2.79719       -2.39514
H         -1.34237        2.19852       -1.82297
H         -3.20334       -0.05615        0.93017
H         -2.55120        0.49056       -0.49136
C         -3.33225        2.04130        0.57968
C         -2.53004        2.97270       -0.33877
N         -2.68616        0.71089        0.50606
N         -2.33210        2.31864       -1.62776
H         -1.72181        0.74259        0.93232
