33
2sa1ma1eda_110.log	Energy: -1058415.2515752
S          0.37916        1.38305        0.42296
O          1.39344        0.26156        0.39296
O         -0.32018        1.43347       -0.89230
O         -0.52050        1.30505        1.56625
O          1.21532        2.70144        0.57051
H          2.03046        2.67716       -0.07353
S          0.54544       -2.73807       -0.03941
O          0.91597       -4.11013       -0.22155
O         -0.87206       -2.38222       -0.05832
O          1.17215       -2.22627        1.32359
O          1.29624       -1.85874       -1.12484
H          1.18653       -1.23404        1.32036
H          1.33262       -0.91703       -0.78865
N          3.31009        2.49523       -0.97546
H          3.02745        1.93027       -1.77165
C          4.32702        1.79103       -0.17779
H          5.21926        1.52442       -0.75456
H          4.62268        2.42862        0.65792
H          3.87426        0.88664        0.23217
H          3.67402        3.36779       -1.34578
H         -3.88682       -0.78350        0.63223
H         -2.43505        0.03033        1.28831
H         -4.40412        1.58634        1.27943
H         -3.08712        2.14723        0.24907
H         -5.61287        0.98718       -0.66742
H         -4.82561        2.30999       -1.21738
H         -2.00755       -1.17224       -0.78187
H         -3.10504       -0.11382       -1.56234
C         -3.16756        0.02602        0.48141
C         -3.85699        1.37678        0.35231
N         -2.44465       -0.23944       -0.79020
N         -4.69393        1.37533       -0.85074
H         -1.65518        0.45104       -0.90428
