34
2sa1ma1tma_09.log	Energy: -1048356.5526169
S          1.04769        1.95204        0.06980
O          2.37971        1.85478       -0.57340
O          0.93207        0.89517        1.12302
O          0.61411        3.27237        0.47679
O         -0.03315        1.53131       -1.06900
H          0.00907        0.55886       -1.23204
S         -0.27428       -2.05362       -0.06543
O          1.17600       -2.32760       -0.13883
O         -0.67713       -1.03343       -1.09792
O         -1.14957       -3.20484       -0.01747
O         -0.53210       -1.27882        1.33506
H          0.02180       -0.45106        1.33297
N          3.22429       -0.59436        0.23690
H          2.98857        0.34918       -0.16662
H          3.28181       -0.45313        1.24426
C          4.46267       -1.16718       -0.32905
H          4.66081       -2.13445        0.13214
H          4.32029       -1.30055       -1.40071
H          5.29521       -0.48631       -0.15245
H          2.40063       -1.22500        0.07271
N         -2.75485        0.44509       -0.07529
C         -3.22969        1.16967       -1.28074
H         -2.48131        1.91734       -1.54367
H         -3.33739        0.45244       -2.09486
H         -4.18960        1.64146       -1.06120
C         -3.65719       -0.67190        0.30781
H         -3.72142       -1.37062       -0.52635
H         -3.22136       -1.18501        1.16479
H         -4.64126       -0.26717        0.55253
C         -2.50052        1.37076        1.05942
H         -2.07715        0.79863        1.88385
H         -1.79279        2.13691        0.74336
H         -3.44889        1.82340        1.35738
H         -1.85897       -0.01445       -0.35780
