36
2sa1dma1eda_153.log	Energy: -1083078.7504115
S         -2.64130       -1.12153       -0.36757
O         -3.57555       -1.93308       -1.10902
O         -1.41358       -0.69281       -1.11085
O         -3.24418        0.07147        0.30013
O         -2.09649       -2.06937        0.82380
H         -2.25207        1.10123        1.05585
H         -1.29231       -1.67421        1.21887
S          1.36864       -0.62492        0.70356
O          2.59115       -1.25767        1.18616
O          0.21207       -0.63311        1.63692
O          1.62185        0.78378        0.23203
O          0.94722       -1.45482       -0.57477
H          3.00092        0.75303       -0.48397
H         -0.00403       -1.20859       -0.85279
N          3.97912        0.61391       -0.91717
C          3.96914       -0.64981       -1.70224
C          4.97096        0.61769        0.18806
H          4.14828        1.40177       -1.54089
H          3.75493       -1.46668       -1.01309
H          3.17527       -0.59488       -2.44628
H          4.94016       -0.78723       -2.18064
H          4.68434       -0.17274        0.88242
H          5.97011        0.44543       -0.21541
H          4.92696        1.58194        0.69442
H         -0.76464        1.66553       -1.08591
H         -0.67238        3.42787       -1.25399
H          0.10843        2.90088        0.94593
H         -1.50857        3.66073        1.09487
H         -0.69717        0.86094        1.56269
H         -1.68742        1.84086        2.46421
H         -2.77103        2.96739       -2.02763
H         -3.10931        1.85363       -0.88493
C         -1.20784        2.61410       -0.75388
C         -0.95720        2.78867        0.73803
N         -2.63122        2.73759       -1.05097
N         -1.43051        1.59810        1.51033
