31
2sa1ma1dma_36.log	Energy: -1023687.5588244
S          0.95634        0.05073        0.87246
O          2.16156       -0.15204        1.69747
O         -0.22779        0.57211        1.56560
O          1.28652        0.88739       -0.34124
O          0.62379       -1.39558        0.31627
H          2.98559        0.31060       -0.80139
H         -0.25673       -1.35474       -0.20742
S         -2.84173       -0.76459       -0.30977
O         -3.90279       -1.68188       -0.64482
O         -1.52049       -1.02941       -0.96988
O         -3.16957        0.68357       -0.48056
O         -2.57805       -0.97395        1.26715
H         -1.93618        1.51724       -0.84060
H         -1.83195       -0.40308        1.54487
N         -1.11044        2.18733       -1.01777
H         -0.22587        1.65287       -0.90951
C         -1.16076        3.28957       -0.03102
H         -0.35712        4.00139       -0.22229
H         -2.12987        3.78372       -0.09650
H         -1.03554        2.84578        0.95606
H         -1.17836        2.52439       -1.97497
N          3.76981       -0.28050       -0.45687
C          5.07092        0.39903       -0.61140
C          3.67793       -1.62298       -1.08071
H          3.48651       -0.35012        0.54788
H          5.28158        0.53970       -1.67242
H          5.02356        1.36586       -0.11056
H          5.85176       -0.21302       -0.15848
H          3.84497       -1.53038       -2.15456
H          4.43369       -2.27319       -0.63862
H          2.68060       -2.01855       -0.88316
