36
2sa1dma1eda_46.log	Energy: -1083089.2471264
S          2.38209        0.89076       -0.06929
O          1.77191        1.55843        1.10109
O          3.27000       -0.22232        0.27152
O          1.37171        0.59793       -1.10960
O          3.30716        2.01144       -0.80544
H          4.11784        2.11395       -0.28874
S         -2.71906       -0.61660       -0.18165
O         -2.49294        0.57074       -1.04075
O         -2.40136       -1.88311       -0.87705
O         -2.12580       -0.47545        1.14796
O         -4.31780       -0.67617        0.10401
H         -4.75952       -0.93648       -0.71560
N         -0.80164        2.29327        0.29084
C         -1.62961        2.72492        1.43776
C         -0.42860        3.37590       -0.64434
H          0.07756        1.86756        0.64482
H         -2.53611        3.20024        1.06044
H         -1.89400        1.83716        2.01230
H         -1.05854        3.42697        2.04703
H         -1.33565        3.80655       -1.07068
H          0.13595        4.13691       -0.10395
H          0.19091        2.94506       -1.43066
H         -1.33243        1.56672       -0.23752
H          1.01564       -1.27670        1.13346
H         -0.36769       -2.36789        1.19951
H          1.92788       -3.34713        1.91263
H          1.04712       -4.30364        0.71159
H          3.16964       -2.38713        0.01968
H          3.22760       -4.03301       -0.14435
H          0.60960       -0.97650       -0.99620
H          1.00534       -2.55789       -1.25909
C          0.59044       -2.18798        0.71280
C          1.56717       -3.35316        0.87563
N          0.34998       -1.95179       -0.74478
N          2.61414       -3.22810       -0.13356
H         -0.64659       -2.10493       -0.99214
