39
2sa1eda1tma_112.log	Energy: -1107729.9446594
S          2.45119        1.51844        0.50196
O          3.19168        2.72265        0.73412
O          1.05286        1.46674        0.92545
O          2.52208        1.17162       -1.04236
O          3.22654        0.31140        1.17690
H          2.89224       -0.53623        0.78455
S          0.92287       -2.19159       -0.61795
O         -0.16248       -1.40103       -1.19835
O          1.09117       -3.56220       -1.06052
O          2.19628       -1.40632       -0.56156
O          0.47874       -2.29631        0.97866
H          2.29472        0.20942       -1.15811
H          0.70951       -3.18391        1.28198
H         -1.44828        0.53289        2.92987
H         -2.06709        1.78114        1.84087
H         -3.95496        0.63058        2.97120
H         -3.98932        0.31829        1.23267
H         -3.08266       -1.58601        3.26486
H         -4.19922       -1.80041        2.08690
H         -0.34322        0.35795        0.85828
H         -1.36891       -0.95362        0.96800
C         -2.03195        0.70450        2.02128
C         -3.43133        0.11573        2.15356
N         -1.33160        0.06701        0.89072
N         -3.33204       -1.33066        2.31545
H         -1.76130        0.36752       -0.04414
N         -2.30480        1.09113       -1.49131
C         -2.83409        0.04111       -2.36215
H         -2.08676       -0.74765       -2.46749
H         -3.73497       -0.38800       -1.91258
H         -3.09396        0.43440       -3.35833
C         -3.29160        2.14276       -1.27085
H         -4.19818        1.71624       -0.82984
H         -2.88772        2.89353       -0.58491
H         -3.57196        2.64886       -2.20913
C         -1.05882        1.64341       -2.03134
H         -0.64684        2.37505       -1.33048
H         -0.33400        0.83624       -2.15034
H         -1.22126        2.13429       -3.00383
