39
2sa1eda1tma_93.log	Energy: -1107737.3621351
S          1.83805       -1.77289        0.19954
O          0.62344       -2.58649        0.21630
O          2.15152       -1.12330       -1.09183
O          1.89310       -0.80622        1.32772
O          3.01345       -2.84978        0.44433
H          3.86446       -2.42893        0.25879
S          1.45449        2.18023       -0.25009
O          0.12280        1.61506       -0.00927
O          1.59004        3.59640       -0.42232
O          2.39649        1.72838        0.93065
O          2.06445        1.47860       -1.52315
H          2.25087        0.75611        1.13752
H          2.07836        0.48433       -1.41073
H         -2.41579       -1.33725        2.56360
H         -0.97396       -0.43017        3.05014
H         -2.86994        0.99113        3.49957
H         -2.03121        1.66013        2.09772
H         -4.53307        0.14151        2.01263
H         -4.22383        1.63065        1.42046
H         -0.69973       -1.48216        0.87877
H         -1.96026       -0.58939        0.18272
C         -1.80624       -0.45627        2.34268
C         -2.63764        0.81477        2.43962
N         -1.24776       -0.61375        0.98527
N         -3.81634        0.71686        1.58193
H         -0.59774        0.15897        0.76972
N         -2.52996       -0.53617       -1.43903
C         -1.41551       -1.05614       -2.23208
H         -0.52016       -0.45875       -2.04004
H         -1.19952       -2.08801       -1.94296
H         -1.63132       -1.02472       -3.31213
C         -3.73659       -1.33444       -1.61350
H         -3.52795       -2.37931       -1.36551
H         -4.51351       -0.96214       -0.93997
H         -4.11403       -1.29331       -2.64907
C         -2.77629        0.87175       -1.74355
H         -3.58421        1.23728       -1.10590
H         -1.87423        1.45171       -1.53171
H         -3.05401        1.01699       -2.80051
