26
2sa1eda_101.log	Energy: -998248.7056047
S         -0.89533        1.75691        0.15293
O         -2.04420        2.63715        0.09614
O          0.43689        2.40037        0.14487
O         -0.99086        0.67501        1.16407
O         -0.98964        0.94946       -1.29104
H         -2.47546       -0.27664        0.70303
H         -0.17719        0.40494       -1.37865
S          2.40815       -0.41598       -0.19893
O          3.69021       -0.96039       -0.55277
O          1.25319       -0.62812       -1.05919
O          1.93645       -1.05699        1.20603
O          2.58816        1.08949        0.13218
H          2.65856       -0.98883        1.84746
H          1.69467        1.60961        0.17449
H         -1.00594       -2.04928       -1.14416
H         -1.61337       -3.60353       -0.57675
H         -3.50666       -2.23533       -1.30591
H         -3.57668       -2.50903        0.46161
H         -2.58155       -0.05919       -0.89462
H         -3.99218       -0.19414       -0.01050
H         -0.25890       -3.03602        1.14650
H         -0.56665       -1.44007        1.08753
C         -1.57443       -2.53695       -0.33723
C         -3.01657       -2.04026       -0.34906
N         -0.99270       -2.35849        0.98241
N         -3.05005       -0.56463       -0.12221
