30
2sa1a1eda_129.log	Energy: -1033761.4612076
S          1.19155       -1.60854       -0.09360
O          2.28933       -2.48571        0.27786
O          0.57213       -0.87841        1.04770
O          1.64451       -0.58457       -1.12153
O          0.07011       -2.46878       -0.77485
H          3.09301       -0.02340       -0.42662
H         -0.74445       -1.88544       -0.91208
S         -2.52677       -0.04846        0.11023
O         -3.96744       -0.05064        0.04996
O         -1.82005       -0.70611       -1.03451
O         -1.90379        1.30580        0.31422
O         -2.14350       -0.89994        1.41480
H         -0.82901        1.48666       -0.74127
H         -1.16402       -0.97600        1.45314
H          1.86036        2.62818       -1.39404
H          0.41989        3.65443       -1.50082
H          1.40840        3.91773        0.68113
H         -0.19328        3.17197        0.82007
H          1.48913        2.15414        2.22324
H          0.86683        1.06231        1.20270
H         -0.31277        1.64415       -2.35221
H          0.57975        0.70502       -1.31524
C          0.84385        2.77266       -1.01563
C          0.83908        3.00281        0.49181
N          0.02774        1.59286       -1.39465
N          1.46234        1.89939        1.23905
N          3.61038        0.36800        0.40328
H          2.92007        1.09594        0.79982
H          4.51562        0.76046        0.16227
H          3.72271       -0.41197        1.05377
