33
2sa1ma1eda_196.log	Energy: -1058406.6007296
S          0.19750        0.26394       -0.92416
O         -1.06703        0.19479       -1.65786
O          1.40629        0.34903       -1.77108
O          0.19537        1.28531        0.15305
O          0.25685       -1.16929       -0.17862
H         -1.35662        1.38222        0.77271
H          1.14145       -1.27402        0.23603
S          3.94360       -0.33922        0.47848
O          5.30783       -0.75832        0.66173
O          2.84230       -1.23592        0.78051
O          3.66478        0.93818        1.42061
O          3.80621        0.23561       -0.96247
H          4.43116        1.52797        1.38089
H          2.82803        0.31447       -1.26281
N         -2.39734        1.33196        0.92182
H         -2.67866        0.32007        0.74455
C         -3.09097        2.21692       -0.04347
H         -4.16574        2.07784        0.07453
H         -2.80862        3.25344        0.14205
H         -2.76581        1.92240       -1.04170
H         -2.62742        1.57519        1.88160
H         -5.59427       -2.10252        0.84221
H         -6.41697       -0.90132       -0.15024
H         -4.52821       -1.95310       -1.34330
H         -4.34577       -0.20240       -1.19885
H         -2.94457       -2.13606        0.51251
H         -2.29456       -1.18946       -0.65441
H         -6.15772        0.15947        1.85461
H         -4.64550       -0.37927        2.10396
C         -5.48492       -1.10597        0.38494
C         -4.34793       -1.13735       -0.62968
N         -5.28336       -0.05110        1.38582
N         -3.04586       -1.24475        0.03505
