28
2sa1a1dma_49.log	Energy: -999019.1498081
S          1.59259       -1.37499       -0.02379
O          0.53259       -2.02847       -0.84571
O          2.77019       -1.02359       -0.82087
O          1.07154       -0.32000        0.84502
O          2.07428       -2.51451        1.03307
H          2.48556       -3.23299        0.53353
S         -2.43052       -0.32684       -0.18355
O         -3.85880       -0.35650       -0.36673
O         -1.62078        0.65638       -0.88427
O         -2.12133        0.00025        1.37292
O         -1.88079       -1.75677       -0.37528
H         -2.64294       -0.59296        1.93185
H         -0.84161       -1.82235       -0.54065
N          0.45751        2.27225        0.05828
C         -0.07098        3.31188       -0.84490
C          0.24047        2.54459        1.49458
H          0.00032        1.37637       -0.16398
H          0.43205        4.25825       -0.63782
H          0.11594        3.00925       -1.87516
H         -1.14569        3.41193       -0.69170
H          0.74746        3.47362        1.76222
H         -0.83020        2.63029        1.68441
H          0.64654        1.70535        2.05742
H          1.49695        2.13986       -0.12020
N          3.19439        1.89676       -0.44283
H          3.64619        2.38239       -1.21131
H          3.19999        0.89424       -0.65993
H          3.78079        2.01989        0.37720
