26
2sa1eda_63.log	Energy: -998252.8218472
S          1.50114       -1.68180       -0.14926
O          1.23455       -2.55122       -1.28014
O          2.52598       -0.64924       -0.26996
O          0.22684       -1.07300        0.41220
O          2.04445       -2.62143        1.05940
H          1.61871       -3.48548        0.97774
S         -2.79284        0.30418       -0.08483
O         -3.96077        0.57442       -0.88109
O         -1.87745        1.36366        0.29064
O         -3.25945       -0.31623        1.33041
O         -2.02259       -0.87444       -0.75677
H         -4.00410       -0.91590        1.17772
H         -1.10501       -1.02823       -0.33149
H          1.21145        1.20587       -1.14762
H          0.14984        2.59825       -0.84947
H          2.58658        3.14823       -1.53242
H          2.06063        3.93008       -0.03519
H          3.62408        1.43464       -0.09288
H          4.10423        2.90369        0.49579
H          0.50143        0.55009        0.82163
H          1.72817        1.59809        1.34094
C          1.04288        2.07462       -0.51145
C          2.28969        2.96110       -0.49247
N          0.80954        1.54981        0.86628
N          3.30564        2.30600        0.32535
H          0.09696        2.07760        1.36535
