34
2sa1ma1tma_52.log	Energy: -1048332.9366683
S         -0.41386       -1.27995        0.44406
O          0.48008       -0.55067        1.38665
O         -1.54387       -1.94017        1.08253
O         -0.81563       -0.38845       -0.68538
O          0.46057       -2.44845       -0.19956
H          1.28198       -2.05091       -0.56314
S          3.24456        0.23251       -0.43540
O          3.95285        1.19998       -1.23268
O          2.63626       -0.93511       -1.04443
O          4.26339       -0.38460        0.65029
O          2.20637        0.99857        0.43847
H          4.85135        0.31829        0.96179
H          1.49688        0.36035        0.84535
N         -1.11295        2.56059       -0.06082
H         -0.64574        1.75443       -0.47249
C         -0.64454        2.72621        1.31960
H          0.42878        2.93939        1.40371
H         -1.19822        3.53756        1.80249
H         -0.83516        1.80360        1.87510
H         -0.83893        3.36792       -0.61194
N         -3.43181        0.12851       -0.49395
C         -3.67259        0.57540        0.90236
H         -3.27385       -0.18401        1.57609
H         -3.14814        1.52137        1.04083
H         -4.74717        0.70225        1.05411
C         -3.82154        1.16958       -1.47431
H         -3.25463        2.07181       -1.23634
H         -3.57057        0.82013       -2.47659
H         -4.89687        1.34766       -1.39871
C         -4.06649       -1.18423       -0.76883
H         -3.81872       -1.48633       -1.78694
H         -3.66070       -1.91092       -0.06431
H         -5.14882       -1.08803       -0.65694
H         -2.38853       -0.02010       -0.58739
