26
2sa1eda_74.log	Energy: -998252.6532480
S          0.65013       -1.15758        0.13179
O         -0.66885       -1.82317        0.08390
O          1.73392       -1.92059        0.73525
O          1.02610       -0.57205       -1.18825
O          0.47391        0.10850        1.12981
H         -0.35734        0.58274        0.90063
S         -3.06532        0.56632       -0.16823
O         -1.85668        1.25116        0.25778
O         -4.08812        1.26766       -0.89661
O         -2.71387       -0.72947       -0.95968
O         -3.68654        0.00765        1.20924
H         -1.88073       -1.18845       -0.57951
H         -4.56505       -0.35957        1.03395
H          5.05083        1.20840       -0.84242
H          3.70453        1.46637       -1.98582
H          3.48848        2.83225        0.16878
H          2.11857        1.76093       -0.14003
H          3.96792        1.55984        2.02964
H          2.51312        0.80110        1.80405
H          4.25882       -0.94471       -1.48859
H          3.71354       -0.63020        0.07072
C          3.97516        1.09208       -0.99677
C          3.18087        1.78262        0.11936
N          3.65132       -0.35564       -0.92528
N          3.39235        1.05867        1.36684
H          2.62948       -0.51533       -1.18631
