26
2sa1eda_83.log	Energy: -998252.5797791
S         -0.62649       -1.27165       -0.17985
O         -1.87382       -2.01653       -0.18535
O          0.60292       -2.06723       -0.39154
O         -0.63036       -0.05394       -1.04179
O         -0.53450       -0.68553        1.33495
H         -1.34215        1.14668       -0.29235
H          0.35937       -0.29544        1.45067
S          2.91145        0.45792        0.15676
O          1.91672        0.54748        1.21402
O          4.28925        0.77957        0.41655
O          2.85988       -0.93081       -0.53769
O          2.35034        1.47059       -0.96720
H          1.92674       -1.36990       -0.51100
H          3.01397        1.55907       -1.66643
H         -3.89321        2.65943        0.10221
H         -3.08060        2.32320       -1.45126
H         -4.97298        0.67419       -0.88132
H         -3.40457       -0.08705       -1.17391
H         -4.82248       -0.04920        1.30327
H         -3.51267       -0.95170        0.83524
H         -1.54393        2.63876        0.52820
H         -2.22820        1.21398        1.12165
C         -3.28607        1.93824       -0.45091
C         -3.95848        0.55829       -0.48658
N         -2.00115        1.76654        0.27536
N         -3.91810       -0.01942        0.85234
