33
2sa1ma1eda_06.log	Energy: -1058428.0934560
S          1.95773       -1.41483       -0.30425
O          1.17828       -2.45087       -1.01874
O          2.27076       -0.24551       -1.15490
O          1.41164       -1.07391        1.01066
O          3.39458       -2.09428        0.03822
H          3.80887       -2.35637       -0.79518
S         -2.58243        0.65708       -0.22501
O         -2.02028        1.64785       -1.16753
O         -3.03549       -0.58508       -0.88281
O         -1.73933        0.42445        0.95481
O         -3.91516        1.35005        0.39782
H         -4.52526        1.53503       -0.32907
N         -1.21725       -2.31222        0.34462
H         -0.94932       -1.49854        0.91570
H         -2.00657       -1.96387       -0.22932
C         -1.56609       -3.47688        1.18061
H         -1.85938       -4.30554        0.53670
H         -0.69399       -3.75904        1.76998
H         -2.39139       -3.21055        1.84050
H         -0.39745       -2.50260       -0.27071
H          0.17049        2.89477        1.12167
H          0.66497        1.19420        1.26181
H          2.48063        2.73041        2.08940
H          2.99266        1.77587        0.69360
H          2.29105        4.61820        0.65653
H          3.59807        3.87190        0.01623
H         -0.31753        1.87621       -0.93247
H          1.10010        2.79460       -1.14469
C          0.88741        2.14474        0.77834
C          2.32612        2.58227        1.01353
N          0.69079        1.97393       -0.68576
N          2.60768        3.76915        0.20044
H          1.21598        1.13103       -1.00284
