28
2sa1a1dma_64.log	Energy: -999014.3624379
S          2.53339        0.54607       -0.09694
O          3.90507        0.86206       -0.38921
O          2.17120       -0.40626        0.93955
O          1.82175        1.92631        0.44351
O          1.77106        0.25287       -1.40090
H          2.21535        2.68300       -0.01356
H          0.78938       -0.14537       -1.20035
S         -0.77267       -1.81449       -0.07966
O         -0.47176       -0.53308       -0.84613
O         -1.68713       -2.68820       -0.76904
O          0.62986       -2.59143       -0.02009
O         -1.12118       -1.45004        1.31174
H          1.26790       -2.05202        0.48696
H         -0.77810        0.14399        1.74570
N         -2.53726        1.50945       -0.25219
C         -2.83010        2.77304       -0.92457
C         -3.74270        0.76826        0.13175
H         -1.97829        0.91074       -0.86258
H         -3.35609        3.44143       -0.23580
H         -1.89631        3.25401       -1.22662
H         -3.45768        2.63805       -1.81611
H         -4.31590        1.35632        0.85581
H         -4.39034        0.55103       -0.72753
H         -3.45291       -0.17772        0.59618
N         -0.77223        1.19342        1.76923
H          0.15618        1.53067        1.50307
H         -1.01598        1.52986        2.69593
H         -1.50659        1.48507        1.00664
