36
2sa1dma1eda_47.log	Energy: -1083089.1122997
S          2.88082        0.35238       -0.17169
O          3.05502       -0.62047       -1.24740
O          2.76568        1.75508       -0.56765
O          1.80376       -0.05592        0.79048
O          4.19520        0.24133        0.79096
H          4.95561        0.56554        0.28974
S         -2.62326       -0.77625       -0.18755
O         -3.01415        0.39990       -0.96166
O         -1.96544       -1.83841       -0.98280
O         -1.87380       -0.47449        1.05352
O         -3.99136       -1.43816        0.39472
H         -4.59831       -1.56726       -0.34670
N          0.50620       -2.39404        0.09928
C          0.18801       -3.01273        1.40502
C          1.34721       -3.23114       -0.78391
H         -0.39443       -2.16885       -0.37890
H          1.11538       -3.17411        1.95632
H         -0.46856       -2.33375        1.94877
H         -0.32092       -3.96280        1.23568
H          2.28922       -3.44670       -0.27880
H          0.81423       -4.15637       -1.00865
H          1.55947       -2.67355       -1.69459
H          0.99318       -1.48965        0.28396
H          0.54490        2.77539       -0.77338
H         -0.62659        1.51194       -1.20843
H         -1.63879        3.79241       -1.47723
H         -2.48875        2.80159       -0.29038
H         -0.65243        5.00949        0.32061
H         -2.16602        4.75208        0.88641
H          0.62643        1.22878        0.95302
H         -0.33789        2.52763        1.51735
C         -0.41383        2.32309       -0.51121
C         -1.55275        3.33302       -0.48477
N         -0.26870        1.74899        0.85342
N         -1.31203        4.29024        0.59863
H         -1.01638        1.04943        1.04156
