21
2sa1ma_24.log	Energy: -938853.1515467
S         -2.20088       -0.31260       -0.10220
O         -1.27013       -0.08824       -1.19721
O         -3.44588       -1.00386       -0.29978
O         -1.46176       -0.93922        1.10980
O         -2.54336        1.18957        0.40873
H         -0.45266       -0.68602        1.12257
H         -3.36002        1.15557        0.92747
S          1.91905       -0.79635        0.06970
O          2.89047       -1.70202        0.62340
O          0.93169       -0.21433        1.04528
O          2.48631        0.34126       -0.72530
O          1.05049       -1.66247       -0.95968
H          2.02883        1.64310       -0.31726
H          0.30103       -1.12797       -1.29173
N          1.69491        2.65903       -0.03058
H          2.09731        2.86217        0.88292
C          0.21102        2.73358        0.00514
H         -0.11241        3.76043        0.17659
H         -0.18036        2.35924       -0.94000
H         -0.13675        2.08133        0.80223
H          2.09111        3.31499       -0.70140
