28
2sa1a1dma_39.log	Energy: -999025.8568991
S         -2.91946       -0.53630       -0.26551
O         -4.01692       -1.45910       -0.40910
O         -1.59861       -0.99506       -0.79634
O         -3.19009        0.84384       -0.78231
O         -2.70268       -0.37191        1.32645
H         -2.00350        1.68449       -1.00165
H         -1.91389        0.18418        1.49162
S          0.90530        0.39924        0.79065
O          2.10048        0.34805        1.65010
O         -0.26288        1.10412        1.34309
O          1.25591        0.93156       -0.57582
O          0.52015       -1.12272        0.57777
H          2.91904        0.17818       -0.90318
H         -0.34891       -1.17427        0.03916
N          3.68926       -0.33615       -0.42872
C          5.00664        0.24987       -0.74635
C          3.55583       -1.78649       -0.71019
H          3.41763       -0.15559        0.56429
H          5.21582        0.11166       -1.80792
H          4.98548        1.31291       -0.50679
H          5.77379       -0.24760       -0.15181
H          3.72084       -1.96152       -1.77393
H          4.29362       -2.33235       -0.12115
H          2.54767       -2.09162       -0.42626
N         -1.12756        2.34477       -1.07651
H         -1.23578        3.01778       -1.82909
H         -0.26755        1.77871       -1.19165
H         -1.02737        2.81724       -0.17877
