30
2sa1a1eda_51.log	Energy: -1033764.1160182
S          2.94888       -0.16384       -0.05652
O          2.73257       -1.25775       -1.03545
O          3.07089        1.16233       -0.65785
O          1.99484       -0.24486        1.07142
O          4.37202       -0.48541        0.66322
H          5.07632       -0.28660        0.03138
S         -2.50588       -0.93627       -0.05411
O         -3.26753        0.23812       -0.47245
O         -2.04550       -1.80660       -1.15526
O         -1.40923       -0.65025        0.90611
O         -3.50335       -1.84319        0.85811
H         -4.32802       -1.96554        0.36814
H          0.64488        3.41701       -0.01106
H          0.78662        1.94558       -0.97748
H         -1.19465        3.50545       -1.60522
H         -1.62400        1.82137       -1.32001
H         -2.54226        4.03298        0.15127
H         -2.94815        2.44359        0.28722
H          0.94398        1.32101        1.28351
H         -0.46081        2.23260        1.66661
C          0.14301        2.48509       -0.28136
C         -1.26031        2.73118       -0.83406
N          0.03010        1.67717        0.96365
N         -2.17172        3.09740        0.25184
H         -0.55034        0.81923        0.82783
N          0.47880       -2.49114       -0.20266
H          0.60871       -3.46022        0.07281
H          0.31660       -1.90531        0.62557
H          1.34580       -2.11614       -0.66631
H         -0.37685       -2.38407       -0.78438
