30
2sa1a1eda_56.log	Energy: -1033763.2702860
S         -2.82896        0.10320        0.07519
O         -2.88809       -1.25208        0.67892
O         -2.37246        1.13548        1.02949
O         -2.12948        0.12802       -1.21016
O         -4.36104        0.48661       -0.29681
H         -4.87069        0.53414        0.52351
S          2.26100       -1.30567        0.03621
O          3.32002       -1.87603       -0.77674
O          2.66179       -0.38380        1.09641
O          1.08845       -0.79100       -0.74293
O          1.52139       -2.59287        0.78921
H          2.19229       -3.05837        1.30576
H          0.65741        3.22787        1.39563
H          1.42081        1.63912        1.69641
H          3.07512        3.28332        0.77191
H          2.84471        1.88080       -0.26841
H          1.81966        4.57600       -0.77024
H          2.55921        3.54123       -1.80011
H         -0.78328        1.61504        0.44966
H          0.08445        2.31483       -0.81899
C          1.14211        2.36426        0.93197
C          2.35697        2.78254        0.11114
N          0.15787        1.73115        0.02157
N          1.91496        3.59818       -1.02129
H          0.48243        0.78869       -0.28338
N         -0.96948       -2.56445       -0.71050
H         -1.35017       -2.88172       -1.59744
H         -1.74337       -2.16242       -0.11851
H         -0.48592       -3.31638       -0.22198
H         -0.25773       -1.81234       -0.87249
