39
2sa1eda1tma_67.log	Energy: -1107748.6240350
S          0.87111       -2.08457        0.37597
O          1.11522       -0.62788        0.68644
O          0.66931       -2.21240       -1.09313
O          1.82444       -2.98716        0.97735
O         -0.54449       -2.41979        1.05378
H         -1.23195       -1.87975        0.59124
S         -1.91795        0.23099       -1.32364
O         -0.93658        1.32786       -1.01573
O         -2.12533       -0.57775       -0.08560
O         -3.11864        0.68074       -1.98730
O         -1.15782       -0.73908       -2.35678
H         -0.57372       -1.38108       -1.86802
H          3.57521        0.97368       -2.05172
H          2.46098        2.21323       -2.67549
H          3.48022        3.12005       -0.67552
H          1.80276        2.76281       -0.31535
H          2.65953        0.68439        0.78761
H          4.17907        1.29492        0.59820
H          1.48735       -0.06867       -2.57048
H          1.57492       -0.02445       -0.91320
C          2.65801        1.53099       -1.84440
C          2.77464        2.29812       -0.52271
N          1.53512        0.56447       -1.77344
N          3.19635        1.53703        0.63817
H          0.59573        1.02523       -1.66972
N         -0.95029        1.07762        1.96523
C         -2.33842        1.60973        1.95664
H         -2.45268        2.25856        1.08861
H         -3.03088        0.77434        1.87054
H         -2.50394        2.16539        2.88185
C         -0.73050        0.12011        3.08023
H         -1.45545       -0.68797        2.99203
H          0.27389       -0.28944        2.98647
H         -0.85814        0.64938        4.02665
C          0.04850        2.17427        1.97117
H          1.05089        1.74820        1.93131
H         -0.13249        2.79505        1.09390
H         -0.07668        2.75858        2.88501
H         -0.82576        0.55539        1.08140
