33
2sa1ma1eda_58.log	Energy: -1058426.3386823
S          0.24780       -2.28880        0.17142
O          0.03229       -1.47320       -1.06861
O         -0.17000       -1.30064        1.38336
O         -0.62962       -3.42960        0.31690
O          1.70482       -2.54320        0.32974
H          2.46203       -1.39999       -0.47438
S          0.87052        2.12986        0.38692
O          1.59791        3.34996        0.68137
O         -0.59937        2.23538        0.43366
O          1.21069        1.80490       -1.22638
O          1.38543        0.89179        1.00398
H          1.31837        2.65253       -1.67709
H          0.40727       -0.49977        1.35891
N          2.89451       -0.61399       -1.05229
H          3.11591       -0.99859       -1.96821
C          4.07672       -0.02990       -0.37859
H          4.49475        0.76777       -0.99282
H          3.73954        0.37700        0.57367
H          4.81844       -0.81155       -0.21651
H          2.15999        0.09656       -1.17551
H         -3.30454       -1.36252       -0.09269
H         -2.46639       -0.51373        1.20982
H         -4.89728        0.14956        1.12201
H         -3.83958        1.52540        0.79340
H         -5.37568        0.04116       -1.20812
H         -5.29444        1.65650       -0.96703
H         -1.29900       -0.50237       -0.98041
H         -2.59013        0.49146       -1.53491
C         -2.99885       -0.37685        0.26865
C         -4.18765        0.56639        0.39598
N         -2.04882        0.19007       -0.71967
N         -4.75845        0.79795       -0.93272
H         -1.55158        1.01440       -0.31931
