34
2sa1ma1tma_26.log	Energy: -1048350.3982299
S          1.38315       -1.40055       -0.58977
O          1.45345       -1.36540        0.87243
O          0.09195       -1.94170       -1.10375
O          1.77823       -0.16170       -1.26841
O          2.49327       -2.52112       -0.98777
H          2.52153       -2.58717       -1.95213
S         -2.09058        0.94864       -0.44206
O         -3.34266        1.64474       -0.64666
O         -0.85960        1.66637       -0.82367
O         -1.93934        0.35914        0.93395
O         -2.16853       -0.35039       -1.42158
H         -1.88072       -1.18772        1.00276
H         -1.26992       -0.72448       -1.53411
N         -1.73067       -2.24923        0.95186
H         -2.61382       -2.67827        0.68491
C         -1.18768       -2.78583        2.21814
H         -1.05717       -3.86535        2.13795
H         -0.21928       -2.31420        2.38270
H         -1.87189       -2.54917        3.03292
H         -1.05389       -2.36659        0.17137
N          1.52462        2.06619        0.51462
C          2.97776        1.77206        0.58412
H          3.10720        0.73588        0.89300
H          3.41453        1.90919       -0.40408
H          3.43490        2.45292        1.30568
C          1.26157        3.46043        0.07512
H          1.74616        3.61861       -0.88860
H          0.18586        3.58201       -0.03806
H          1.66773        4.14732        0.82078
C          0.85067        1.75778        1.80548
H         -0.22042        1.90913        1.68388
H          1.03665        0.70852        2.03457
H          1.26481        2.41154        2.57643
H          1.10080        1.44354       -0.19948
