31
2sa1a1tma_42.log	Energy: -1023672.5388205
S         -0.12590        1.36302       -0.14281
O         -1.23607        2.23398       -0.55353
O          1.21031        1.98134       -0.27455
O         -0.34310        0.73350        1.17898
O         -0.17925        0.16699       -1.22675
H         -2.09837        1.02351        1.72319
H          0.64013       -0.37047       -1.14571
S          3.34667       -0.72932       -0.03808
O          4.65721       -1.25885       -0.30602
O          2.19988       -1.14333       -0.82750
O          2.93101       -1.11659        1.46958
O          3.45276        0.82409        0.00128
H          3.70334       -1.01049        2.04334
H          2.53734        1.28006       -0.07064
N         -3.00871        1.29060        1.30640
H         -3.64196        1.70602        1.98150
H         -3.40862        0.39403        0.80732
H         -2.71594        1.96012        0.57397
N         -3.70210       -0.95573       -0.02404
C         -2.66543       -1.89338        0.42505
H         -1.68037       -1.44352        0.28291
H         -2.80318       -2.10634        1.48907
H         -2.71218       -2.84082       -0.13185
C         -5.04074       -1.49021        0.21929
H         -5.17474       -1.68412        1.28747
H         -5.79220       -0.76358       -0.10192
H         -5.20962       -2.43039       -0.32782
C         -3.51617       -0.61538       -1.44030
H         -4.25494        0.13485       -1.73569
H         -2.51511       -0.20633       -1.59168
H         -3.63825       -1.50083       -2.08199
