33
2sa1ma1eda_73.log	Energy: -1058428.3840557
S         -0.61893       -2.00366        0.14169
O         -0.45248       -1.07788        1.30043
O         -0.06642       -1.20579       -1.14332
O          0.27241       -3.15425        0.22137
O         -2.05362       -2.27470       -0.11540
H         -2.94939       -0.91338        0.12889
S         -0.41160        1.99421        0.06494
O         -0.68415        3.41228        0.03120
O          0.99578        1.58697        0.27774
O         -1.21263        1.43720        1.38771
O         -1.03625        1.21415       -1.04991
H         -0.87759        0.51276        1.53154
H         -0.46373       -0.28628       -1.18646
N         -3.46762       -0.00187        0.28859
H         -4.16432       -0.16251        1.01355
C         -4.07773        0.49384       -0.97043
H         -4.61958        1.41789       -0.77045
H         -3.26745        0.69304       -1.66948
H         -4.75149       -0.26734       -1.36237
H         -2.77200        0.67370        0.65589
H          3.69866       -1.60842       -0.92820
H          2.33034       -0.69893       -1.61086
H          4.49022        0.63156       -1.72848
H          3.25468        1.41582       -0.73203
H          5.65913        0.07916        0.24341
H          4.95619        1.46833        0.75250
H          1.89295       -1.71110        0.60123
H          3.05716       -0.64502        1.21828
C          3.08116       -0.71276       -0.82118
C          3.92765        0.55580       -0.79024
N          2.36633       -0.80816        0.47675
N          4.76880        0.53469        0.40882
H          1.65467       -0.04566        0.53045
