31
2sa1ma1dma_49.log	Energy: -1023678.6997085
S          1.40138        0.63260       -0.59622
O          0.64196        1.32677       -1.62923
O          1.08996        1.12506        0.77410
O          1.24867       -0.87395       -0.64386
O          2.92670        0.86297       -0.86418
H          3.48174        0.08354       -0.44274
S         -2.12415       -1.54274       -0.18945
O         -3.14132       -2.56187       -0.21267
O         -2.43237       -0.21117       -0.69268
O         -1.72526       -1.23480        1.36183
O         -0.82908       -2.10359       -0.78413
H         -1.54317       -2.07186        1.81149
H          0.06503       -1.46515       -0.73380
N          4.09777       -1.18092        0.22236
H          3.49646       -1.90083       -0.17136
C          3.91645       -1.10148        1.67882
H          4.15074       -2.03993        2.19347
H          4.55577       -0.30974        2.07468
H          2.87868       -0.82983        1.88321
H          5.05696       -1.40481       -0.02153
N         -1.40681        2.12050        0.43278
C         -2.19824        2.15763        1.67930
C         -1.40357        3.37772       -0.34569
H         -0.41726        1.83641        0.65007
H         -3.23908        2.38275        1.44195
H         -2.13318        1.17853        2.15346
H         -1.79160        2.92423        2.34056
H         -2.42645        3.62315       -0.63591
H         -0.98890        4.17595        0.27176
H         -0.77990        3.22077       -1.22523
H         -1.75999        1.34339       -0.15339
