24
2sa1dma_14.log	Energy: -963522.2957532
S         -1.85359       -0.86679       -0.05122
O         -1.77531        0.08676       -1.17283
O         -0.86118       -1.97534       -0.13833
O         -1.88025       -0.22496        1.26299
O         -3.27274       -1.59809       -0.29864
H         -3.32899       -2.36024        0.29435
S          2.25560       -0.48377        0.17894
O          1.62965        0.55805        0.97810
O          3.67912       -0.67206        0.23253
O          1.57261       -1.85737        0.37927
O          1.80940       -0.07130       -1.32586
H          0.54239       -1.85011        0.21896
H          2.11519       -0.73979       -1.95616
N         -0.44668        2.16600       -0.00005
C         -1.32975        2.90084        0.93328
C          0.33196        3.01787       -0.92413
H          0.21545        1.57608        0.53267
H         -2.03635        3.49713        0.35451
H         -1.86167        2.16489        1.53574
H         -0.72191        3.55020        1.56503
H         -0.35457        3.59694       -1.54294
H          0.96838        3.68749       -0.34404
H          0.94809        2.37209       -1.54924
H         -1.01516        1.47465       -0.54475
