30
2sa1a1eda_138.log	Energy: -1033752.8516522
S         -1.70001       -1.90982       -0.05077
O         -1.99913       -1.02010       -1.18091
O         -0.28626       -2.37712       -0.05767
O         -2.15774       -1.39320        1.24588
O         -2.57109       -3.26297       -0.23465
H         -2.23102       -3.73614       -1.00614
S          1.88840        0.34286        0.08475
O          2.18633       -0.10292        1.43291
O          0.83220        1.34586       -0.06720
O          3.15842        0.92854       -0.60118
O          1.60252       -0.88349       -0.84493
H          3.96120        0.30386       -0.38483
H          0.82615       -1.47013       -0.51053
H         -3.36912        2.67457        0.75996
H         -2.10630        2.68106        2.01560
H         -1.97334        4.61503        0.33007
H         -0.48710        3.68389        0.52561
H         -1.76685        4.10713       -1.85694
H         -0.67944        2.90574       -1.58887
H         -2.21758        0.44348        1.06001
H         -2.15873        1.05943       -0.46519
C         -2.29597        2.59142        0.94380
C         -1.51502        3.63926        0.14627
N         -1.86967        1.24472        0.50320
N         -1.55584        3.30849       -1.27492
H         -0.83483        1.17446        0.48167
N          5.01389       -0.77194        0.10003
H          5.02411       -1.58530       -0.50781
H          4.65533       -1.06496        1.00626
H          5.96869       -0.45056        0.22079
