36
2sa1dma1eda_52.log	Energy: -1083090.1339290
S         -2.39822       -0.90792       -0.01123
O         -2.26680       -2.06213        0.87769
O         -2.98848        0.29583        0.57825
O         -1.13462       -0.62750       -0.76103
O         -3.37938       -1.36102       -1.23338
H         -4.23399       -1.60441       -0.85220
S          2.78349        0.48107       -0.18427
O          2.49014        1.54084       -1.17205
O          1.84066        0.44245        0.93725
O          3.01957       -0.84359       -0.80078
O          4.19021        0.90377        0.51482
H          4.86044        0.97887       -0.17785
N          0.85954       -2.33608        0.12128
C          0.51657       -3.55914       -0.63329
C          0.90666       -2.52105        1.59008
H          1.75747       -1.93068       -0.21624
H         -0.46816       -3.89973       -0.31046
H          0.49258       -3.31903       -1.69615
H          1.26856       -4.32591       -0.44104
H         -0.08865       -2.80596        1.93250
H          1.63821       -3.29550        1.82673
H          1.20696       -1.57194        2.03275
H          0.14241       -1.61829       -0.10944
H         -0.89544        1.54477        1.24819
H          0.45372        2.68317        1.18508
H         -1.86742        3.68260        1.73989
H         -1.00895        4.48601        0.41736
H         -3.05702        2.41794       -0.01055
H         -3.18991        4.02624       -0.37462
H         -0.52013        0.98181       -0.80141
H         -0.84012        2.52224       -1.30373
C         -0.49034        2.40641        0.71824
C         -1.50154        3.55224        0.71252
N         -0.22654        1.97391       -0.68824
N         -2.53988        3.25740       -0.26994
H          0.77470        2.03086       -0.95392
