30
2sa1a1eda_99.log	Energy: -1033765.5813407
S          0.95077        1.67152       -0.23473
O          0.61097        0.70384       -1.32202
O          1.10716        0.91843        1.05724
O          2.04333        2.57102       -0.51768
O         -0.36041        2.57856       -0.05039
H         -1.16311        2.00397       -0.11362
S         -2.41541       -0.60562       -0.28482
O         -2.42193        0.82265        0.13455
O         -1.51443       -1.37425        0.66481
O         -3.70076       -1.22345       -0.49238
O         -1.65198       -0.65572       -1.69314
H         -0.87792       -0.03598       -1.66233
H          1.72911       -1.34644        1.47424
H          1.71332       -3.10729        1.18884
H          4.02462       -2.14067        1.10995
H          3.57429       -2.88297       -0.42680
H          3.49192        0.01931        0.06341
H          4.36960       -0.79488       -1.06577
H         -0.01953       -1.81401       -0.00013
H          1.17239       -0.97912       -0.82069
C          1.92367       -2.13292        0.74295
C          3.36042       -2.03787        0.23840
N          0.96250       -1.89241       -0.36263
N          3.51823       -0.81134       -0.52008
H          1.00060       -2.61707       -1.07751
N         -1.05045        0.53569        2.53565
H         -1.29148       -0.37263        2.07459
H         -0.97686        0.47379        3.54608
H         -0.14080        0.82642        2.06893
H         -1.78394        1.18571        2.24698
