31
2sa1a1tma_07.log	Energy: -1023689.7305343
S          2.42747       -0.92938        0.01952
O          1.33281       -0.34672       -0.79163
O          2.88532       -0.06563        1.10805
O          2.14536       -2.32520        0.41343
O          3.64304       -1.00990       -1.06155
H          4.40173       -1.42774       -0.63163
S         -2.78383       -0.21760       -0.08405
O         -2.82326        1.19189       -0.48170
O         -2.54978       -1.16583       -1.18732
O         -1.91750       -0.49210        1.08925
O         -4.26708       -0.55726        0.50796
H         -4.91790       -0.24644       -0.13541
N         -0.57459       -2.64245        0.12507
H         -0.93135       -2.36272       -0.79717
H          0.46775       -2.61819        0.16773
H         -0.98179       -1.91000        0.75302
H         -0.93494       -3.55976        0.37062
N          0.75931        2.18647       -0.01322
C          0.18981        2.04702        1.35476
H         -0.74294        1.48488        1.29359
H          0.91054        1.49941        1.96317
H          0.01566        3.04389        1.76593
C          2.08864        2.84605        0.01449
H          2.75265        2.25093        0.64180
H          2.48328        2.88541       -1.00155
H          1.97310        3.85683        0.41196
C         -0.17918        2.86227       -0.94606
H          0.25715        2.84706       -1.94554
H         -1.13205        2.32933       -0.93682
H         -0.31934        3.89394       -0.61493
H          0.92030        1.21046       -0.36636
