31
2sa1ma1dma_64.log	Energy: -1023676.5626183
S         -0.35744        0.47505        0.87707
O         -1.60815        1.06859        1.33885
O          0.84322        0.84673        1.65522
O         -0.45134       -0.98783        0.64716
O         -0.15590        1.13906       -0.59350
H         -2.06656       -1.30215        0.24947
H          0.74731        0.92576       -0.91871
S          3.44958       -0.12081       -0.39912
O          4.84562        0.01872       -0.71739
O          2.43092        0.48377       -1.23966
O          3.07059       -1.68690       -0.40981
O          3.25005        0.29111        1.08888
H          3.78321       -2.18332        0.01755
H          2.26618        0.47241        1.31789
N         -3.02969        1.03658       -1.60476
H         -2.02708        1.22490       -1.55743
C         -3.75645        2.11299       -0.91254
H         -3.62833        3.09179       -1.38828
H         -4.82440        1.87780       -0.88472
H         -3.37889        2.17412        0.10984
H         -3.28326        1.00947       -2.58760
N         -3.06136       -1.28329       -0.08337
C         -3.96090       -1.09200        1.07217
C         -3.34435       -2.48041       -0.89364
H         -3.10594       -0.41053       -0.70772
H         -3.90753       -1.96356        1.72734
H         -3.62515       -0.20469        1.60939
H         -4.98450       -0.96068        0.71489
H         -3.27510       -3.37404       -0.27085
H         -4.34757       -2.40550       -1.31822
H         -2.60929       -2.54219       -1.69687
