37
2sa1dma1tma_31.log	Energy: -1073011.7430459
S         -0.32518       -1.59732       -0.05645
O          0.55689       -2.63130        0.49337
O         -0.93545       -0.73012        1.02022
O          0.50974       -0.67568       -0.96442
O         -1.45190       -2.16040       -0.87807
H         -2.71094       -1.44425       -0.63016
S          0.08341        2.45762        0.06627
O         -0.30469        3.83590       -0.06595
O          1.46650        2.12098        0.38772
O         -0.86021        1.80024        1.14941
O         -0.31591        1.70763       -1.26576
H         -0.77731        0.78184        1.14594
H          0.00912        0.73714       -1.22067
N         -3.66253       -0.93418       -0.42831
C         -3.50919        0.51471       -0.70577
C         -4.05880       -1.23547        0.96707
H         -4.34093       -1.33432       -1.07456
H         -2.80402        0.93040        0.01270
H         -3.10574        0.64348       -1.71000
H         -4.47629        1.01300       -0.61442
H         -3.24534       -0.90730        1.61440
H         -4.98911       -0.71808        1.21011
H         -4.18500       -2.31338        1.07076
N          3.02135       -0.72954       -0.05594
C          3.51897       -2.08454       -0.39662
H          2.81395       -2.81217        0.00585
H          3.55915       -2.18104       -1.48224
H          4.51659       -2.21693        0.02929
C          3.82994        0.34198       -0.68540
H          3.84939        0.17740       -1.76354
H          3.36080        1.30081       -0.46585
H          4.84584        0.30414       -0.28472
C          2.90010       -0.54471        1.41483
H          2.46185        0.43674        1.59587
H          2.24069       -1.32519        1.79598
H          3.89309       -0.61851        1.86509
H          2.03498       -0.66241       -0.44407
