34
2sa1ma1tma_55.log	Energy: -1048332.7158791
S         -0.44843       -1.32101        0.23079
O          0.35540       -0.59534        1.26372
O         -1.51862       -2.13252        0.79280
O         -0.91436       -0.37082       -0.81634
O          0.54358       -2.34355       -0.48132
H          1.32867       -1.85004       -0.80840
S          3.30047        0.28110       -0.28022
O          4.11732        1.33627       -0.81942
O          2.64399       -0.67605       -1.15140
O          4.20933       -0.63661        0.68341
O          2.26997        0.92156        0.69762
H          4.81403       -0.06747        1.18070
H          1.49223        0.27512        0.91949
N         -1.18478        2.26160        0.99535
H         -1.11812        2.90950        1.77451
C         -0.49977        2.82247       -0.17618
H          0.54726        3.09382        0.00687
H         -0.51315        2.07757       -0.97522
H         -1.03380        3.71399       -0.52139
H         -0.69942        1.41536        1.28844
N         -3.47479        0.20942       -0.30205
C         -3.84445        1.50867       -0.91029
H         -3.29845        2.28662       -0.37461
H         -3.55179        1.50128       -1.96097
H         -4.92362        1.65409       -0.82198
C         -4.07574       -0.94956       -1.00707
H         -3.79316       -0.90502       -2.05911
H         -3.67404       -1.86007       -0.56104
H         -5.16238       -0.90920       -0.90338
C         -3.77217        0.17905        1.15366
H         -3.38620       -0.75652        1.55966
H         -3.25921        1.02591        1.60989
H         -4.85335        0.25153        1.29406
H         -2.43128        0.09766       -0.42305
