33
2sa1ma1eda_159.log	Energy: -1058410.9425429
S          0.08799       -2.14330        0.25412
O         -0.76651       -1.30228        1.10266
O         -0.30077       -2.19148       -1.15590
O          1.54485       -1.85239        0.42847
O         -0.11679       -3.62012        0.88370
H          0.48390       -4.23094        0.43480
S          2.46080        1.04985       -0.26992
O          1.06577        1.28775       -0.62287
O          3.41048        2.11601       -0.40027
O          2.51535        0.52363        1.22858
O          2.99007       -0.19267       -1.10193
H          2.05653       -0.35242        1.26793
H          2.46530       -0.98886       -0.83544
N         -1.26677        3.07703        0.19753
H         -0.37729        3.37804       -0.19099
C         -1.09182        2.66234        1.59596
H         -0.76747        3.47332        2.25811
H         -2.03784        2.25613        1.96254
H         -0.34231        1.86832        1.63344
H         -1.91977        3.84977        0.12859
H         -3.17286        0.65665       -2.22058
H         -2.56766       -0.98463       -1.88558
H         -4.75207       -0.69252       -0.80786
H         -3.47794       -0.89639        0.39859
H         -4.78300        1.63994       -0.27053
H         -4.63022        0.92192        1.18947
H         -0.79178        0.48372       -1.48588
H         -1.66099        1.56192       -0.53962
C         -2.82350       -0.02239       -1.43700
C         -3.87615       -0.20767       -0.35352
N         -1.58994        0.54546       -0.85253
N         -4.16958        1.06616        0.29876
H         -1.31199       -0.01055       -0.02267
