33
2sa1ma1eda_102.log	Energy: -1058420.8293186
S         -2.64806       -1.11258       -0.21533
O         -3.20796       -2.39954       -0.54824
O         -1.32993       -0.78782       -0.86084
O         -3.56842        0.04738       -0.38715
O         -2.31283       -1.18913        1.36549
H         -2.82894        1.42980       -0.33453
H         -1.76425       -0.42025        1.62415
S          0.84315        0.75888        1.08729
O          1.90836        0.76687        2.07248
O         -0.52543        1.05019        1.59258
O          1.12538        1.60645       -0.12029
O          0.80686       -0.74173        0.52229
H          2.13687        0.82505       -1.06230
H         -0.03459       -0.86100       -0.03868
N         -2.14350        2.25147       -0.31039
H         -2.61592        3.09198        0.01291
C         -1.53407        2.42286       -1.64852
H         -0.74536        3.17241       -1.60050
H         -1.11615        1.45735       -1.93045
H         -2.30836        2.71554       -2.35795
H         -1.43184        1.97293        0.39764
H          4.87663       -0.17846       -1.71566
H          4.41385        1.06333       -0.51808
H          4.98378       -1.27659        0.45332
H          3.43754       -0.59269        0.95595
H          3.82652       -2.93524       -0.64091
H          2.45156       -2.36833        0.08407
H          2.89589        0.64269       -2.57414
H          2.46128       -0.72960       -1.69764
C          4.13904        0.10487       -0.96081
C          3.98616       -0.99662        0.10168
N          2.82236        0.24325       -1.64232
N          3.25328       -2.11724       -0.48344
