36
2sa1dma1eda_95.log	Energy: -1083085.0993327
S         -1.24209       -2.03608       -0.29915
O         -1.55065       -0.70718       -0.89404
O         -0.29925       -2.82215       -1.09129
O         -0.92897       -1.94028        1.13828
O         -2.66034       -2.83917       -0.30659
H         -2.78228       -3.20457       -1.19325
S          0.70744        1.98280       -0.53202
O          1.92011        2.68394       -0.90041
O          0.71870        1.38628        0.83978
O         -0.56594        2.73324       -0.72365
O          0.64021        0.72834       -1.53949
H         -1.69912        2.22655        0.23268
H         -0.20150        0.22495       -1.39304
N         -2.54778        2.01517        0.85179
C         -2.16063        1.11395        1.96775
C         -3.63652        1.48408       -0.00582
H         -2.82268        2.92060        1.23092
H         -1.85537        0.15350        1.55232
H         -1.31266        1.55911        2.48624
H         -3.01338        0.98755        2.63785
H         -3.27951        0.55356       -0.44900
H         -4.52653        1.30802        0.60107
H         -3.84791        2.21275       -0.78878
H          2.81661       -2.50407        0.03446
H          1.87111       -1.36306       -0.94176
H          4.32538       -0.81879       -1.04622
H          3.38330        0.49115       -0.33968
H          5.17252       -1.31515        1.09126
H          4.95321        0.29561        1.27253
H          0.91892       -1.66796        1.29310
H          2.39380       -1.08428        1.93208
C          2.52367       -1.45672       -0.07479
C          3.73102       -0.53278       -0.16994
N          1.75015       -1.07459        1.13643
N          4.47537       -0.57888        1.09269
H          1.37991       -0.09022        1.03577
