21
2sa1ma_29.log	Energy: -938832.4710497
S          1.99514       -0.58949       -0.06325
O          3.39981       -0.30914       -0.01398
O          1.11603        0.12927       -0.97137
O          1.75648       -2.12745       -0.44768
O          1.44007       -0.49242        1.40277
H          2.44055       -2.67485       -0.03326
H          0.44646       -0.50177        1.40509
S         -2.14161       -0.36667        0.12153
O         -3.50461        0.03219        0.31378
O         -1.22365       -0.48830        1.24049
O         -2.08722       -1.81110       -0.57264
O         -1.52221        0.58207       -0.97034
H         -2.81123       -1.89146       -1.21187
H         -0.53853        0.45636       -1.02209
N          0.45583        3.30433       -0.72250
H         -0.48838        3.35260       -1.08767
C          0.45630        2.98871        0.69983
H         -0.06171        2.05551        0.97325
H          1.48867        2.91319        1.05266
H         -0.01823        3.80412        1.25286
H          0.95954        2.60136       -1.25108
