31
2sa1ma1dma_78.log	Energy: -1023671.1314109
S          1.73316       -1.35045       -0.06589
O          1.47677       -1.61820       -1.46933
O          2.46250       -0.09421        0.21697
O          0.52510       -1.45782        0.81120
O          2.70396       -2.55266        0.41161
H          2.86782       -2.46152        1.36007
S         -2.54129       -0.34865       -0.18785
O         -3.80191       -0.57005       -0.84481
O         -1.67044        0.72993       -0.62634
O         -2.81448        0.00795        1.36308
O         -1.77948       -1.69454       -0.12479
H         -3.51631       -0.57013        1.69583
H         -0.80642       -1.60894        0.23408
N          1.37516        2.03848        2.06426
H          2.01319        1.27542        1.85180
C          0.11709        1.50032        2.58791
H          0.20698        1.02020        3.57225
H         -0.62792        2.29828        2.66111
H         -0.26373        0.75001        1.89312
H          1.82634        2.63100        2.75309
N          0.84892        1.82124       -1.07852
C          0.98983        1.41697       -2.49981
C          0.84033        3.28495       -0.85724
H         -0.03391        1.41962       -0.72306
H          1.92320        1.82476       -2.88984
H          1.00945        0.32785       -2.55014
H          0.14135        1.81205       -3.05928
H          1.75198        3.71012       -1.27978
H         -0.03374        3.71027       -1.35210
H          0.81389        3.44843        0.22053
H          1.58965        1.36336       -0.51384
