31
2sa1ma1dma_26.log	Energy: -1023694.1116423
S          1.08608        1.64691       -0.29976
O          0.87547        0.67366       -1.58532
O          0.43017        0.94820        0.82674
O          2.55005        1.68161       -0.19098
O          0.41510        2.92620       -0.61474
H         -1.24659        2.60667       -0.18546
S         -1.56040       -1.44465       -0.14189
O         -2.20626       -1.14418        1.13086
O         -0.22260       -2.05920       -0.04547
O         -2.48731       -2.54872       -0.89912
O         -1.61168       -0.32052       -1.12181
H         -2.60552       -3.29628       -0.29769
H         -0.03673        0.29891       -1.56233
N         -2.16079        2.13803        0.02851
H         -2.90584        2.62596       -0.46361
C         -2.40434        2.07068        1.49193
H         -3.32241        1.51490        1.67608
H         -1.55976        1.54198        1.92920
H         -2.47457        3.08324        1.88942
H         -2.07467        1.17575       -0.37201
N          2.34390       -1.15602        0.37107
C          2.52885       -1.35271        1.82481
C          3.07790       -2.10352       -0.49098
H          1.32509       -1.25031        0.17203
H          3.58432       -1.23490        2.07430
H          1.92929       -0.59854        2.33401
H          2.18211       -2.35140        2.09252
H          4.14833       -2.01436       -0.30004
H          2.73694       -3.11647       -0.27449
H          2.86147       -1.85689       -1.53014
H          2.60793       -0.18156        0.13148
