34
2sa1ma1tma_49.log	Energy: -1048332.3555004
S          2.58709        1.06019        0.18372
O          3.67552        1.96804        0.43308
O          1.70935        0.64250        1.26473
O          1.57599        1.76311       -0.86660
O          3.13297       -0.16259       -0.59538
H          2.10032        2.17319       -1.56931
H          2.51120       -0.99872       -0.55219
S          0.24549       -2.10759       -0.17863
O          1.70443       -2.21233       -0.43057
O         -0.50498       -3.34754       -0.22652
O          0.09917       -1.61773        1.36154
O         -0.35148       -1.00728       -0.99035
H          0.69254       -0.84827        1.49069
H         -1.97562       -1.06363       -0.84601
N         -2.96676       -0.89936       -0.51608
H         -2.98822        0.16262       -0.33672
C         -3.20890       -1.66767        0.72903
H         -4.21213       -1.45896        1.10207
H         -3.07892       -2.73095        0.53050
H         -2.45940       -1.36500        1.46035
H         -3.61744       -1.15555       -1.25425
N         -2.53404        1.77133       -0.06162
C         -1.87828        2.15379       -1.31549
H         -1.09686        1.42628       -1.55051
H         -2.61500        2.17251       -2.12454
H         -1.41423        3.14924       -1.23962
C         -3.61024        2.69702        0.27980
H         -4.35367        2.71578       -0.52225
H         -4.09960        2.37008        1.20148
H         -3.23459        3.72164        0.43081
C         -1.54318        1.68396        1.01681
H         -2.02895        1.34922        1.93795
H         -0.76784        0.96791        0.73928
H         -1.06155        2.65521        1.20452
