25
2sa1a1ma_37.log	Energy: -974361.7836782
S         -2.41863       -0.46533       -0.33220
O         -3.44600       -1.15391       -1.06840
O         -1.15974       -0.15287       -1.10051
O         -2.84771        0.77224        0.37805
O         -1.94370       -1.50141        0.81388
H         -1.66777        1.72688        0.69654
H         -1.16034       -1.14206        1.27146
S          1.63937       -0.55727        0.52441
O          2.76448       -1.33319        0.98667
O          0.57537       -0.19150        1.47168
O          2.13929        0.82548       -0.04888
O          1.01190       -1.28827       -0.69468
H          3.02063        0.66199       -0.58442
H          0.07568       -0.88112       -0.92538
N         -0.74506        2.25818        0.84163
H         -0.85025        2.92810        1.60000
C         -0.32958        2.90354       -0.42721
H          0.65402        3.35559       -0.30684
H         -0.30028        2.12590       -1.18902
H         -1.07025        3.65591       -0.69691
H         -0.07291        1.53014        1.13347
N          4.33882        0.18254       -1.28944
H          4.15232       -0.23188       -2.19806
H          4.68078       -0.55702       -0.67931
H          5.07659        0.87047       -1.40142
