27
2sa1tma_30.log	Energy: -988157.1795930
S          2.31700       -0.41985       -0.10058
O          3.55382        0.30570       -0.16613
O          1.38320       -0.41487       -1.21204
O          2.61766       -1.97763        0.13679
O          1.59156        0.01310        1.22293
H          3.36974       -2.07274        0.74008
H          0.64128       -0.28369        1.21334
S         -1.85457       -1.08739        0.08282
O         -3.07038       -0.33801        0.25927
O         -0.80940       -1.08250        1.09189
O         -2.24020       -2.63464       -0.06701
O         -1.24938       -0.76123       -1.32472
H         -3.12762       -2.70387       -0.44843
H         -0.27077       -0.58542       -1.27266
N         -0.59221        2.10843       -0.00415
C         -1.06578        2.41980        1.33595
H         -2.00110        1.88817        1.53075
H         -0.32421        2.09952        2.07420
H         -1.24475        3.50272        1.47759
C          0.66372        2.79040       -0.27842
H          1.40962        2.51728        0.47232
H          1.04049        2.49418       -1.26176
H          0.55024        3.89100       -0.26656
C         -1.59011        2.46692       -1.00176
H         -1.23958        2.17253       -1.99537
H         -2.52579        1.94048       -0.79899
H         -1.79309        3.55472       -1.01379
