31
2sa1a1tma_30.log	Energy: -1023678.0857344
S         -0.27102       -0.55259        0.61187
O          0.92482        0.00457        1.29733
O         -1.21778       -1.26529        1.45894
O         -0.92112        0.49978       -0.22437
O          0.27374       -1.66254       -0.40624
H          1.08712       -1.32114       -0.84957
S          3.48000        0.19164       -0.38677
O          4.81135        0.51520       -0.79810
O          2.60050       -0.55255       -1.28411
O          3.56875       -0.59647        0.99334
O          2.75008        1.54137        0.02725
H          2.65563       -0.69917        1.34586
H          1.88882        1.29659        0.44238
N         -2.63705        2.90193        0.43242
H         -2.49747        3.71550       -0.15889
H         -1.80163        2.32286        0.34833
H         -2.67078        3.24251        1.38841
N         -3.52154       -0.20098       -0.47332
C         -4.17363       -0.08440        0.85692
H         -3.56929       -0.63747        1.57625
H         -4.20203        0.97329        1.11963
H         -5.18299       -0.49743        0.79240
C         -4.18411        0.65451       -1.48734
H         -4.14965        1.68260       -1.12350
H         -3.63915        0.56993       -2.42830
H         -5.21462        0.31771       -1.62141
C         -3.40897       -1.61589       -0.91124
H         -2.84043       -1.65029       -1.84105
H         -2.87549       -2.17186       -0.14005
H         -4.41037       -2.02410       -1.06387
H         -2.53370        0.15115       -0.36421
