33
2sa1ma1eda_05.log	Energy: -1058431.1839653
S         -2.09635       -1.38010       -0.15272
O         -1.12845       -2.45039        0.15353
O         -2.51747       -0.62189        1.04588
O         -1.74094       -0.50794       -1.28002
O         -3.41823       -2.14473       -0.70029
H         -3.61901       -2.86880       -0.09190
S          0.95408        1.66866       -0.63298
O          2.33208        2.07957       -0.81922
O          0.67780        1.00526        0.68487
O         -0.08697        2.68987       -0.89507
O          0.73892        0.49527       -1.72418
H         -1.43523        2.30242       -0.01829
H         -0.18353        0.14944       -1.65519
N         -2.17852        2.09692        0.70222
H         -3.06143        2.48727        0.38087
C         -1.75572        2.65990        2.00536
H         -2.49699        2.41833        2.76691
H         -0.79458        2.20884        2.24887
H         -1.64081        3.73942        1.91060
H         -2.29173        1.06047        0.77733
H          2.59548       -2.92199       -0.32321
H          1.99298       -1.51762       -1.24777
H          4.45019       -1.30228       -0.72510
H          3.48216        0.00174       -0.04190
H          4.72091       -2.19208        1.43378
H          4.59057       -0.61082        1.83164
H          0.54766       -2.11050        0.65653
H          1.87869       -1.73282        1.67038
C          2.41768       -1.84323       -0.29779
C          3.69111       -1.07020        0.03151
N          1.42265       -1.56832        0.76823
N          4.10445       -1.38783        1.40150
H          1.12859       -0.55229        0.73532
