25
2sa1a1ma_15.log	Energy: -974372.4556753
S         -2.23303        0.03791       -0.14460
O         -1.28239       -0.56344       -1.10349
O         -2.49387       -0.87416        0.99116
O         -1.92385        1.42157        0.23586
O         -3.63707        0.20587       -0.92615
H         -3.92677       -0.66507       -1.23055
S          2.11552       -0.59739       -0.26142
O          1.85795       -2.01136       -0.56412
O          1.46460       -0.24839        1.07463
O          3.46751       -0.09727       -0.37109
O          1.27063        0.28252       -1.32285
H          0.33992       -0.04872       -1.35633
N          0.56100        2.26861        1.01801
H          0.44854        2.68497        1.93972
H          1.00940        1.31472        1.12688
C          1.36086        3.13124        0.11380
H          1.45586        2.61328       -0.83931
H          0.85750        4.08896       -0.01698
H          2.35105        3.27610        0.54483
H         -0.39006        2.06455        0.64185
N         -0.20371       -2.37277        1.25865
H          0.43198       -1.58150        1.51426
H          0.17587       -2.66373        0.34710
H         -0.16043       -3.13198        1.93115
H         -1.16717       -1.98099        1.16286
