39
2sa1eda1tma_71.log	Energy: -1107745.5674678
S          3.02228        0.19850        0.00740
O          1.71285       -0.31886       -0.42786
O          4.03859        0.35904       -1.02280
O          2.87491        1.36144        0.91656
O          3.55717       -1.03604        0.96715
H          4.50784       -0.91562        1.08828
S         -2.65779       -0.14361        0.06800
O         -3.12498        1.23993        0.03579
O         -2.77336       -0.89541       -1.18361
O         -1.31487       -0.30050        0.70274
O         -3.59717       -0.92599        1.16199
H         -4.51981       -0.73736        0.94396
H          1.19054        3.13415       -0.78303
H          0.26335        1.74284       -1.36243
H         -0.89336        3.95752       -1.84459
H         -1.86589        2.87641       -0.82979
H         -0.45198        5.26373        0.08148
H         -1.96905        4.74673        0.42946
H          1.21563        1.77205        0.99139
H         -0.12963        2.77805        1.32216
C          0.25459        2.58155       -0.66551
C         -0.95971        3.48635       -0.85590
N          0.24264        2.03651        0.71657
N         -1.02013        4.44157        0.25287
H         -0.35611        1.19119        0.78076
N         -0.17375       -2.66654       -0.15886
C          0.09800       -2.62380       -1.62087
H         -0.77481       -2.18705       -2.10744
H          0.97324       -1.99482       -1.77978
H          0.27085       -3.64271       -1.97509
C          0.99680       -3.14933        0.61689
H          1.85812       -2.52681        0.38459
H          0.76669       -3.06759        1.67971
H          1.18287       -4.19311        0.35371
C         -1.39105       -3.46217        0.14820
H         -1.61606       -3.35856        1.20987
H         -2.22027       -3.06760       -0.43816
H         -1.19862       -4.50812       -0.09986
H         -0.38376       -1.68685        0.13774
