33
2sa1ma1eda_68.log	Energy: -1058425.6949140
S          0.09506       -2.11100       -0.58465
O         -1.00173       -1.36442       -1.24887
O          0.14497       -3.53613       -0.81263
O          1.47698       -1.54903       -1.22998
O          0.16193       -1.69743        0.85841
H          1.51245       -1.02773        1.37782
S          1.13775        2.20465       -0.20603
O          0.49496        1.87916        1.08344
O          1.70760        3.52871       -0.34301
O          2.04280        1.10078       -0.64858
O         -0.14398        2.10930       -1.22959
H          1.48532       -0.56738       -1.22804
H          0.14983        2.35129       -2.11833
N          2.45778       -0.56318        1.52017
H          2.49435        0.15684        0.76992
C          3.54170       -1.56113        1.37553
H          4.51126       -1.06965        1.45419
H          3.43840       -2.32023        2.15046
H          3.43063       -2.02356        0.39486
H          2.46788       -0.08596        2.41868
H         -3.21127        1.99308        0.88140
H         -2.69878        1.70854       -0.79355
H         -5.03976        0.86610       -0.43186
H         -3.92980       -0.45467       -0.81541
H         -5.05992        0.12342        1.81289
H         -4.87103       -1.31731        1.05542
H         -1.03528        0.98876        0.90114
H         -2.16507       -0.16879        1.39507
C         -2.99554        1.22240        0.13629
C         -4.18661        0.28832       -0.05411
N         -1.85282        0.41831        0.61616
N         -4.44912       -0.40936        1.20415
H         -1.52072       -0.23668       -0.13674
