36
2sa1dma1eda_88.log	Energy: -1083086.0247146
S         -0.18901       -1.50979       -0.01023
O          0.24406       -0.53500        1.06835
O         -1.00730       -0.70718       -1.03498
O          1.02785       -2.05162       -0.66428
O         -1.07543       -2.55840        0.55377
H         -2.72754       -1.93033        0.54109
S         -0.39433        2.53302       -0.06596
O         -0.90302        3.87074        0.05740
O          1.04419        2.34715       -0.28837
O         -0.81173        1.70652        1.20149
O         -1.17146        1.82521       -1.24327
H         -0.36406        0.75964        1.18672
H         -1.01000        0.82008       -1.21674
N         -3.37469       -1.28722        0.02861
C         -3.77938       -0.15038        0.88485
C         -4.48007       -2.03859       -0.59261
H         -2.68385       -0.94639       -0.68101
H         -4.34331       -0.52399        1.74054
H         -2.88183        0.37108        1.22078
H         -4.39419        0.53521        0.30000
H         -5.12805       -2.44213        0.18702
H         -5.05412       -1.37261       -1.23854
H         -4.05869       -2.85401       -1.18051
H          3.82393        0.85551        1.02145
H          2.57239       -0.33274        1.46975
H          4.87026       -1.36414        1.55808
H          3.83733       -2.13242        0.34729
H          6.02798       -0.27086       -0.20685
H          5.70503       -1.71769       -0.89876
H          2.06492        0.94252       -0.55058
H          3.39848        0.18102       -1.28777
C          3.34809       -0.08881        0.74303
C          4.36950       -1.20843        0.59400
N          2.67745        0.10569       -0.56551
N          5.27972       -0.88631       -0.50729
H          2.07529       -0.73664       -0.76006
