33
2sa1ma1eda_50.log	Energy: -1058425.8852690
S         -1.95813       -1.39826       -0.33835
O         -1.85127       -1.33930        1.11502
O         -2.18276       -0.05919       -0.95781
O         -0.90054       -2.15729       -1.03045
O         -3.33304       -2.22078       -0.59675
H         -3.42157       -2.37289       -1.54768
S          0.95409        1.95325       -0.60065
O          1.76713        0.98056       -1.37133
O          1.45382        3.30830       -0.53821
O         -0.46503        2.08760       -1.38452
O          0.58271        1.34680        0.72061
H         -0.88768        1.20675       -1.47224
H         -0.96442        1.63160        1.14263
N         -2.01633        1.75951        1.15204
H         -2.20125        2.71241        0.84325
C         -2.62307        1.44648        2.46413
H         -3.70118        1.60000        2.41380
H         -2.41127        0.40042        2.68082
H         -2.18788        2.09398        3.22510
H         -2.33980        1.11362        0.40499
H          2.67387       -3.16721        0.14360
H          3.00944       -2.26030       -1.34821
H          4.89608       -1.99396        0.28209
H          4.08738       -0.45609       -0.03471
H          3.91747       -2.01041        2.42253
H          3.96741       -0.38236        2.21299
H          0.72045       -1.85055       -0.41380
H          1.49097       -1.16187        0.91725
C          2.82402       -2.16893       -0.27631
C          3.96224       -1.43788        0.43255
N          1.58648       -1.38776       -0.07901
N          3.60311       -1.24731        1.83539
H          1.65660       -0.46572       -0.58204
