39
2sa1eda1tma_52.log	Energy: -1107748.3085546
S         -1.00818        1.67178       -0.85395
O         -1.87169        0.76550       -1.63165
O         -1.26741        1.61388        0.59549
O          0.42541        1.60062       -1.19311
O         -1.39420        3.17653       -1.34154
H         -2.35628        3.22516       -1.41979
S          1.34981       -1.82774       -0.65139
O          2.64436       -2.28702       -0.16803
O          0.45091       -2.82891       -1.23151
O          0.60901       -1.00391        0.38523
O          1.69985       -0.74771       -1.79958
H          1.44244        0.46194        0.76045
H          1.09732        0.02882       -1.73274
H         -3.80575       -2.49542        0.23243
H         -2.40977       -3.14271        1.13856
H         -3.84966       -1.70622        2.56097
H         -2.21798       -1.04950        2.41205
H         -4.41033        0.39276        1.96128
H         -3.03105        0.68114        1.11570
H         -2.33300       -0.81563       -0.73003
H         -1.05590       -1.32380        0.19542
C         -2.87876       -2.23632        0.74778
C         -3.15398       -1.23219        1.86205
N         -1.95163       -1.64565       -0.24394
N         -3.74467       -0.01731        1.31960
H         -1.62274       -2.31513       -0.94734
N          2.21324        1.01629        1.20533
C          2.74733        0.13009        2.27123
H          1.95596       -0.05897        2.99659
H          3.05182       -0.81126        1.81076
H          3.59405        0.62326        2.75381
C          3.23890        1.28091        0.16129
H          3.58199        0.32660       -0.23910
H          2.77421        1.86424       -0.63231
H          4.06623        1.82944        0.61748
C          1.64198        2.27295        1.74651
H          1.26369        2.86477        0.91498
H          0.81237        2.02661        2.40802
H          2.42494        2.81142        2.28579
