36
2sa1dma1eda_249.log	Energy: -1083052.2702712
S          2.32172       -1.53311       -0.20912
O          1.38385       -0.92066       -1.13679
O          3.73680       -1.27581       -0.31256
O          1.80281       -1.40341        1.25848
O          2.12453       -3.12106       -0.41587
H          1.20160       -0.60514        1.37548
H          2.94715       -3.56382       -0.16498
S         -1.34260        0.43209        0.84197
O         -1.56919        1.72801        0.20435
O         -0.12609        0.32398        1.65394
O         -2.56085       -0.08125        1.53529
O         -1.20954       -0.65718       -0.36532
H         -3.67945       -0.28290        0.56259
H         -0.29143       -0.67534       -0.72285
N         -4.41239       -0.48402       -0.21783
C         -4.21851       -1.88549       -0.66138
C         -4.22692        0.51954       -1.29694
H         -5.33487       -0.37285        0.20012
H         -3.18228       -1.98642       -0.98485
H         -4.39594       -2.54927        0.18475
H         -4.90608       -2.11689       -1.47692
H         -3.22733        0.38749       -1.71045
H         -4.98685        0.37556       -2.06727
H         -4.29351        1.51610       -0.86203
H          3.54915        2.94619       -0.59692
H          3.26979        1.37193       -1.37012
H          1.59760        3.01259       -2.12167
H          0.83924        1.70141       -1.21357
H          0.98658        4.46461       -0.44459
H         -0.05953        3.27438        0.03352
H          3.59995        1.22068        1.06684
H          2.17987        2.03320        1.25646
C          2.86153        2.08451       -0.64386
C          1.49619        2.57149       -1.11986
N          2.69953        1.41086        0.64053
N          0.91115        3.49939       -0.15257
