36
2sa1dma1eda_139.log	Energy: -1083075.2748060
S          0.85675       -2.07465        0.40486
O          1.33742       -1.18384        1.48424
O         -0.60232       -2.14633        0.27907
O          1.54836       -1.82112       -0.87906
O          1.24904       -3.57320        0.85562
H          2.19318       -3.59637        1.06516
S          2.25528        1.52415       -0.47216
O          0.80343        1.46408       -0.65398
O          2.95591        2.74475       -0.74580
O          2.57061        1.11099        1.01926
O          2.90876        0.37995       -1.33728
H          2.09852        0.26063        1.24982
H          2.41296       -0.48158       -1.20866
N         -1.71272        1.85715        0.95603
C         -1.53849        0.95466        2.09492
C         -2.78337        2.82640        1.15423
H         -0.83167        2.32980        0.76794
H         -2.43084        0.32780        2.18584
H         -0.67772        0.30395        1.92180
H         -1.38767        1.49377        3.04091
H         -3.73437        2.29012        1.22508
H         -2.65093        3.42298        2.06891
H         -2.83087        3.50573        0.29890
H         -3.09009        0.59360       -2.43893
H         -2.28904       -0.95298       -2.77697
H         -4.49899       -1.43201       -1.89363
H         -3.28121       -1.92758       -0.71454
H         -4.98253        0.44282       -0.50477
H         -4.73399       -0.74634        0.58947
H         -0.76474        0.47949       -1.58950
H         -1.82247        0.80836       -0.33705
C         -2.67999       -0.31226       -1.98256
C         -3.74554       -1.05578       -1.18677
N         -1.56598        0.07847       -1.09679
N         -4.28821       -0.19901       -0.13700
H         -1.20692       -0.75067       -0.58404
