39
2sa1eda1tma_21.log	Energy: -1107751.4999925
S          0.60618        2.20291       -0.36523
O          0.89341        1.14217       -1.36156
O         -0.82429        2.49862       -0.23149
O          1.33125        2.01077        0.90199
O          1.30101        3.55131       -0.95449
H          0.82855        3.80172       -1.75988
S         -0.80243       -1.92803       -0.73794
O         -2.09942       -2.59286       -0.78402
O         -0.63370       -1.12929        0.54985
O          0.39486       -2.72418       -0.98636
O         -0.91614       -0.79198       -1.87096
H         -0.22187       -0.09903       -1.73239
H          2.73341       -2.08935       -0.32591
H          2.58970       -0.45358       -0.98699
H          5.00455       -1.04233       -0.55140
H          4.47576        0.33082        0.42614
H          4.82102       -2.41045        1.39908
H          5.44973       -1.02615        2.00199
H          1.04821       -1.00481        0.89707
H          2.45217       -1.01206        1.87581
C          2.90451       -1.03147       -0.11773
C          4.34703       -0.74617        0.27588
N          2.02470       -0.65293        1.01718
N          4.63857       -1.42244        1.54281
H          1.92261        0.38222        1.08016
N         -2.94884        0.15716        0.93775
C         -3.43710        0.63650       -0.38352
H         -2.73704        1.38760       -0.74856
H         -3.45945       -0.21120       -1.06836
H         -4.43593        1.06066       -0.25363
C         -3.78438       -0.95383        1.45691
H         -3.75002       -1.76933        0.73320
H         -3.36519       -1.29469        2.40424
H         -4.80563       -0.59460        1.60388
C         -2.80985        1.26730        1.91149
H         -2.40085        0.86735        2.84032
H         -2.12785        2.00726        1.49023
H         -3.79391        1.70514        2.09557
H         -1.98603       -0.25628        0.78405
