39
2sa1eda1tma_105.log	Energy: -1107736.8232614
S          2.76565       -0.79191       -0.27098
O          2.16606       -0.55139        1.05076
O          4.20303       -0.70291       -0.35719
O          2.30189       -2.16828       -0.82645
O          2.09454        0.20343       -1.29033
H          1.35580       -2.39654       -0.53569
H          2.29940        1.16893       -0.97070
S         -1.04134       -1.69329        0.35128
O         -2.35803       -2.13854        0.79057
O         -0.06403       -2.75055        0.02590
O         -1.11551       -0.66951       -0.73455
O         -0.44145       -0.90613        1.63132
H         -2.42247        0.20315       -0.58432
H          0.53659       -0.82521        1.51198
H          0.39221        3.93843       -0.21124
H          0.03373        3.63277        1.47721
H          2.38596        3.82426        1.34980
H          2.05748        2.09409        1.57515
H          2.67075        3.32997       -1.02117
H          3.68441        2.41834       -0.12554
H          0.03406        1.55014       -0.61028
H         -0.31291        1.32501        0.94281
C          0.47705        3.18286        0.58195
C          1.95809        2.93023        0.87617
N         -0.33102        2.02954        0.20882
N          2.70212        2.56989       -0.34583
N         -3.37332        0.67271       -0.46549
C         -4.37519       -0.30313       -0.96063
H         -4.18287       -0.49549       -2.01657
H         -4.25346       -1.22835       -0.39605
H         -5.37744        0.11189       -0.82941
C         -3.53798        0.93486        0.98681
H         -3.43734       -0.01302        1.51653
H         -2.75007        1.62152        1.29566
H         -4.52256        1.37609        1.16033
C         -3.35780        1.92744       -1.25122
H         -2.53258        2.53753       -0.87923
H         -3.19234        1.68355       -2.30147
H         -4.31657        2.43868       -1.13375
