33
2sa1ma1eda_119.log	Energy: -1058412.2250531
S         -1.59403       -1.70650        0.00739
O         -2.54293       -1.20232        1.00428
O         -1.60570       -0.95070       -1.26084
O         -0.23967       -1.95371        0.54983
O         -2.11714       -3.16831       -0.46582
H         -1.98920       -3.78078        0.27119
S          1.86259        0.91933        0.50447
O          2.93238        1.64244        1.16247
O          0.64539        1.62776        0.13920
O          2.39700        0.23872       -0.79858
O          1.51498       -0.28582        1.45696
H          3.36499       -0.13738       -0.59910
H          0.79539       -0.88414        1.08077
N          4.77574       -0.52056       -0.15191
H          4.91423        0.12752        0.62149
C          5.80391       -0.33809       -1.18450
H          6.82195       -0.47520       -0.80455
H          5.62960       -1.05156       -1.99237
H          5.71402        0.66883       -1.59694
H          4.80466       -1.45888        0.23571
H         -3.27513        3.16348       -1.15076
H         -3.32742        1.80118       -2.30336
H         -5.15007        1.71923       -0.49153
H         -4.12712        0.27887       -0.56321
H         -4.35740        2.05013        1.62732
H         -3.47634        0.64818        1.49876
H         -1.04925        2.25621       -1.26187
H         -1.74438        1.81291        0.16945
C         -3.17514        2.08061       -1.25918
C         -4.13675        1.34471       -0.31621
N         -1.80196        1.70541       -0.85389
N         -3.69613        1.53797        1.06076
H         -1.61567        0.68852       -1.05595
