31
2sa1ma1dma_77.log	Energy: -1023671.9541261
S          0.32671       -0.84030       -0.70570
O         -0.90275       -1.56113       -1.09973
O          1.52909       -1.25068       -1.44113
O          0.12074        0.69313       -1.15934
O          0.52945       -0.81629        0.76283
H         -0.76580        0.99569       -0.86093
H          2.27480       -0.98901        1.08731
S         -3.43313        0.36626        0.24813
O         -4.82747        0.72054        0.21250
O         -2.42069        1.26998       -0.26843
O         -2.99766        0.14229        1.78361
O         -3.27883       -1.04884       -0.38372
H         -3.71001       -0.32375        2.24425
H         -2.30672       -1.26062       -0.63381
N          3.24411       -1.04062        0.70991
H          3.06848       -1.42066       -0.23092
C          4.16095       -1.85285        1.52659
H          5.13126       -1.91788        1.03355
H          4.28260       -1.38432        2.50356
H          3.74964       -2.85420        1.65490
H          3.56474       -0.02514        0.57412
N          3.70316        1.63714        0.21592
C          2.57801        2.26056        0.92533
C          3.56033        1.73179       -1.24359
H          4.56562        2.09495        0.49539
H          1.65781        1.72516        0.67700
H          2.74135        2.19000        2.00394
H          2.44482        3.31645        0.65437
H          2.67921        1.16534       -1.55619
H          3.44216        2.76915       -1.58437
H          4.44115        1.29882       -1.72462
