33
2sa1ma1eda_128.log	Energy: -1058412.8166000
S          1.24660        1.98173       -0.13740
O          0.30952        1.92988       -1.27842
O          0.62782        2.03635        1.17851
O          2.31043        0.94199       -0.27614
O          2.03150        3.39209       -0.25350
H          2.52691        3.40212       -1.08397
S          1.54131       -2.07027       -0.09213
O          1.79093       -3.48167       -0.12236
O          0.19087       -1.57800        0.15066
O          2.51394       -1.42191        0.98401
O          2.06122       -1.44900       -1.45898
H          2.50815       -0.44162        0.85559
H          2.09404       -0.46569       -1.35271
N         -1.41906        0.01677        2.02170
H         -0.94141       -0.86880        1.86950
C         -2.31436       -0.03668        3.17753
H         -1.80232       -0.28328        4.11529
H         -2.80575        0.93178        3.30225
H         -3.09074       -0.78789        3.00614
H         -0.68069        0.70878        2.14908
H         -2.36448       -0.14327       -2.39902
H         -1.59648       -1.15824       -1.15863
H         -3.96534       -1.87402       -1.54657
H         -3.73388       -1.27234        0.09681
H         -5.03780        0.19477       -2.07642
H         -5.59268       -0.10377       -0.56904
H         -1.25747        1.27300       -0.85809
H         -2.92322        1.38101       -0.56003
C         -2.38805       -0.43081       -1.34366
C         -3.75792       -0.97222       -0.95613
N         -2.10353        0.76966       -0.52568
N         -4.75635        0.08763       -1.10730
H         -1.91854        0.48607        0.50470
