36
2sa1dma1eda_55.log	Energy: -1083090.8952423
S          1.41006        2.01106       -0.14573
O          0.87543        2.34791        1.16965
O          2.53484        1.05534       -0.16411
O          0.35735        1.65124       -1.13726
O          2.03241        3.41333       -0.67229
H          2.45748        3.25583       -1.52636
S         -0.79923       -1.76883       -0.52381
O         -0.49703       -0.98930        0.70632
O          0.38596       -2.56076       -0.93439
O         -2.06091       -2.49413       -0.50869
O         -1.02809       -0.64687       -1.67675
H         -0.31933        0.02957       -1.62143
N          2.48535       -1.60934        0.47663
C          3.76204       -2.11285       -0.06499
C          2.29493       -1.84239        1.92387
H          2.42153       -0.58757        0.28511
H          3.82172       -3.19076        0.09311
H          3.79755       -1.89681       -1.13270
H          4.59265       -1.61507        0.43811
H          2.35000       -2.91402        2.12243
H          3.07355       -1.31619        2.47873
H          1.30818       -1.46548        2.19081
H          1.68394       -2.03963       -0.05451
H         -3.63948        2.09978        1.45479
H         -3.26016        2.64283       -0.19964
H         -4.95748        0.82369       -0.27050
H         -3.44482        0.24601       -0.97301
H         -4.66824       -0.68635        1.44355
H         -3.45668       -1.37661        0.54225
H         -1.27341        2.08547        1.35388
H         -1.67401        0.49151        1.06735
C         -3.20986        1.80184        0.49608
C         -3.92053        0.55520       -0.03568
N         -1.78228        1.46525        0.71918
N         -3.80587       -0.51092        0.94666
H         -1.22591        1.49822       -0.15211
