39
2sa1eda1tma_22.log	Energy: -1107750.2762925
S          0.85522       -2.42472        0.08993
O         -0.58749       -2.75490        0.08527
O          1.46458       -2.22687       -1.21753
O          1.17287       -1.35378        1.07251
O          1.59315       -3.75736        0.65928
H          1.16942       -4.00139        1.49318
S         -0.50936        1.72593        0.73369
O         -1.63789        2.58075        1.05508
O         -0.53519        1.15644       -0.64977
O          0.83565        2.29598        1.00779
O         -0.67879        0.45824        1.71171
H          1.93784        1.65606        0.02041
H          0.02892       -0.21473        1.52350
H         -3.96481       -1.51943        0.33629
H         -2.83515       -0.43414        1.18723
H         -4.96994        0.75596        0.61302
H         -3.56537        1.47745       -0.16659
H         -5.62375       -0.14594       -1.46911
H         -4.92697        1.24318       -1.97573
H         -1.75922       -1.68953       -0.59656
H         -2.81582       -0.91495       -1.70590
C         -3.36025       -0.61225        0.24788
C         -4.20512        0.58952       -0.15584
N         -2.33964       -0.85044       -0.80337
N         -4.74989        0.36796       -1.49841
H         -1.66731       -0.03998       -0.83755
N          2.79814        1.45130       -0.56278
C          3.43401        2.77164       -0.77507
H          2.75690        3.39817       -1.35583
H          3.60989        3.23727        0.19492
H          4.37731        2.63797       -1.30958
C          3.65662        0.54175        0.23696
H          3.92896        1.04887        1.16338
H          3.08241       -0.35637        0.46787
H          4.55183        0.29610       -0.33905
C          2.37036        0.83017       -1.84305
H          1.95567       -0.15806       -1.64047
H          1.60480        1.46277       -2.29138
H          3.24161        0.74672       -2.49799
