26
2sa1eda_78.log	Energy: -998252.1880815
S         -0.63209       -0.80180        0.02668
O         -1.09909        0.17566       -0.96604
O          0.17387       -0.19484        1.11493
O         -1.73985       -1.63651        0.55578
O          0.30313       -1.86282       -0.70931
H          1.15686       -1.43068       -0.93891
S          3.29130        0.40404       -0.11540
O          4.34120        1.30791       -0.50218
O          2.61568       -0.42154       -1.09945
O          3.88302       -0.66330        0.93727
O          2.25341        1.20695        0.72826
H          4.48621       -0.20719        1.54151
H          1.39700        0.66454        0.88070
H         -5.54797        0.47402        0.34373
H         -4.51595       -0.30733        1.57541
H         -4.10093        2.21746        1.24959
H         -2.66709        1.20678        1.08434
H         -3.78711        2.84326       -0.91783
H         -2.45628        1.85558       -1.02032
H         -4.65849       -1.41749       -0.71450
H         -3.74541       -0.10226       -1.22968
C         -4.52264        0.21120        0.61519
C         -3.62629        1.45762        0.62211
N         -3.99107       -0.70642       -0.42717
N         -3.43420        1.91118       -0.75148
H         -3.08870       -1.17100       -0.08181
