37
2sa1dma1tma_51.log	Energy: -1073003.6714230
S         -2.25241        1.26646        0.01497
O         -0.81845        1.54485       -0.01761
O         -2.54140        0.30709        1.23710
O         -3.18895        2.35142        0.07313
O         -2.61536        0.38861       -1.24915
H         -2.04169       -0.42995       -1.28716
S         -0.21944       -2.15298       -0.09951
O          1.21682       -2.07963       -0.38026
O         -1.05576       -1.74244       -1.25011
O         -0.57396       -3.70701        0.17979
O         -0.62273       -1.51313        1.17119
H         -0.35364       -4.21855       -0.61079
H         -1.86266       -0.42520        1.26986
N          1.56532        0.51039        1.53468
C          1.39778        1.75614        2.28288
C          2.58967       -0.36233        2.10885
H          0.68235        0.00014        1.54018
H          2.32297        2.34195        2.23409
H          0.58469        2.33240        1.83772
H          1.17007        1.57806        3.34340
H          3.56917        0.12514        2.04147
H          2.39808       -0.58896        3.16710
H          2.61467       -1.29751        1.54588
N          2.07037        1.00135       -1.10529
C          3.38200        0.32588       -1.22830
H          4.02414        0.64507       -0.40605
H          3.21434       -0.74987       -1.16629
H          3.84378        0.58887       -2.18320
C          1.15140        0.57980       -2.19212
H          1.04283       -0.50251       -2.15864
H          0.18387        1.04940       -2.02769
H          1.57782        0.89616       -3.14828
C          2.20069        2.47521       -1.05821
H          1.20962        2.90103       -0.89827
H          2.85391        2.74667       -0.22759
H          2.62520        2.83826       -1.99755
H          1.70925        0.72521       -0.11251
