31
2sa1a1tma_05.log	Energy: -1023691.8971237
S          2.32360       -0.06992       -0.11311
O          2.41278        0.98291        0.88926
O          2.47882       -1.45592        0.39287
O          1.15038        0.05660       -1.01339
O          3.62813        0.18449       -1.04482
H          3.67462       -0.51941       -1.70581
S         -1.96593       -1.13476       -0.32055
O         -3.07949       -2.04715       -0.46579
O         -2.11137        0.19881       -0.94460
O         -1.46695       -0.98447        1.09054
O         -0.73326       -1.85440       -1.09200
H         -0.40340       -2.11180        1.41309
H         -0.00581       -1.18817       -1.18452
N          0.38890       -2.83120        1.39362
H          0.13298       -3.53390        0.70208
H          0.54136       -3.25934        2.30176
H          1.25078       -2.32896        1.05678
N         -0.92921        2.31766        0.19236
C          0.13487        3.08737       -0.49928
H          1.08494        2.57652       -0.35474
H         -0.10417        3.13816       -1.56158
H          0.17440        4.09126       -0.07007
C         -2.25488        2.97353        0.06820
H         -2.48695        3.09797       -0.98924
H         -3.00459        2.32646        0.52150
H         -2.22093        3.94290        0.57001
C         -0.58614        2.04788        1.61462
H         -1.32201        1.35018        2.01408
H          0.40738        1.60040        1.65055
H         -0.59747        2.99474        2.15979
H         -1.05688        1.39302       -0.28488
