36
2sa1dma1eda_108.log	Energy: -1083084.7067189
S          0.85704        1.78550        0.60484
O         -0.46724        1.82988        1.27821
O          1.66129        2.98271        0.69939
O          1.69602        0.64431        1.39933
O          0.70806        1.25090       -0.78725
H          1.11243       -0.14300        1.52362
H          1.13533       -0.29351       -1.05393
S         -1.27276       -1.59116        0.72259
O         -2.08609       -2.72105        1.11133
O          0.11344       -1.55785        1.25087
O         -1.24850       -1.35678       -0.77043
O         -2.01276       -0.29022        1.31244
H         -2.07883       -0.08291       -1.21324
H         -1.38340        0.48912        1.35853
N         -2.79492        0.62452       -1.57289
C         -2.35228        2.01922       -1.31572
C         -4.10321        0.27982       -0.96010
H         -2.84427        0.46742       -2.57886
H         -2.24007        2.15603       -0.24054
H         -1.37417        2.16482       -1.77315
H         -3.09253        2.71068       -1.72236
H         -4.00515        0.39916        0.11808
H         -4.87770        0.93685       -1.35885
H         -4.32718       -0.76386       -1.18137
H          3.12543       -2.23792       -2.14300
H          2.65075       -0.68416       -2.88212
H          4.78386       -0.48921       -1.53401
H          3.49484        0.55057       -0.92685
H          4.71933       -1.60816        0.45988
H          3.62303       -0.49969        1.01461
H          0.76637       -1.80182       -1.64798
H          1.66755       -1.66373       -0.27238
C          2.80307       -1.21378       -1.93901
C          3.80844       -0.49262       -1.03654
N          1.51744       -1.26683       -1.21132
N          3.84119       -1.14729        0.26596
