39
2sa1eda1tma_63.log	Energy: -1107745.1217541
S         -2.94811        0.73403        0.10133
O         -3.26865       -0.25486        1.13255
O         -2.64737        2.08534        0.56365
O         -1.92596        0.21092       -0.86576
O         -4.25177        0.84726       -0.87212
H         -4.93772        1.33099       -0.39228
S          2.83001       -0.90502        0.06060
O          2.43098       -0.15408        1.25998
O          2.83020       -2.35956        0.21439
O          2.11466       -0.42640       -1.15358
O          4.37214       -0.47379       -0.27121
H          4.94725       -0.98491        0.31345
H         -0.29400        2.87086        0.76674
H          0.66460        1.45758        1.28006
H          1.98399        3.57030        1.56631
H          2.72826        2.43608        0.43850
H          1.30807        4.89549       -0.28820
H          2.76602        4.35902       -0.80376
H         -0.49431        1.28429       -0.93542
H          0.62888        2.44744       -1.46787
C          0.59902        2.27600        0.56334
C          1.87516        3.10663        0.57810
N          0.44697        1.69376       -0.79647
N          1.83669        4.06427       -0.53039
H          1.14675        0.92608       -0.95472
N         -1.14790       -2.28812       -0.10566
C         -0.19084       -2.81254       -1.11626
H         -0.73099       -2.97753       -2.04938
H          0.60607       -2.08330       -1.26582
H          0.23778       -3.74665       -0.75010
C         -0.50346       -2.05183        1.21549
H          0.30724       -1.33267        1.10226
H         -1.26103       -1.65494        1.89137
H         -0.09369       -2.99335        1.58484
C         -2.35059       -3.14658        0.02807
H         -3.04517       -2.65621        0.71012
H         -2.81606       -3.25614       -0.95201
H         -2.04735       -4.12367        0.41020
H         -1.47498       -1.35102       -0.44307
