30
2sa1a1eda_92.log	Energy: -1033764.7721860
S         -2.63580        0.38675        0.18456
O         -4.06511        0.18194        0.14721
O         -1.96520        0.44258       -1.16139
O         -2.13936        1.50369        1.02511
O         -2.04140       -0.97309        0.84976
H         -1.06815       -0.85334        0.96434
S          1.67741       -1.43408        0.25716
O          1.30391       -2.18101       -0.95670
O          3.00704       -0.82647        0.25721
O          0.61561       -0.48199        0.67686
O          1.69910       -2.60154        1.38842
H          2.18986       -2.27271        2.15367
H          1.10858        3.43149        1.29722
H          1.52108        1.69880        1.29905
H          2.38279        3.79609       -0.76837
H          3.42397        2.96540        0.39064
H          3.25298        2.04427       -1.99897
H          2.99296        0.92049       -0.82287
H         -0.09563        2.98185       -0.79883
H          0.35654        1.40563       -0.70769
C          1.34308        2.57089        0.66771
C          2.53573        2.84382       -0.24586
N          0.14955        2.23854       -0.14634
N          2.63969        1.78293       -1.23727
H         -0.71095        2.00618        0.42412
N         -1.28521       -2.05306       -1.75032
H         -1.43686       -2.40034       -2.69287
H         -1.56970       -1.02932       -1.65454
H         -1.85719       -2.57096       -1.08368
H         -0.27395       -2.14621       -1.47434
