33
2sa1ma1eda_143.log	Energy: -1058410.5104399
S         -0.13234        1.36810       -0.27464
O         -0.57118        0.91357        1.07566
O          1.25249        0.87297       -0.56700
O         -1.11033        1.05167       -1.31573
O          0.00201        2.93453       -0.22540
H          0.86846        3.17858        0.28703
S          1.38133       -2.58827       -0.11773
O          1.91143       -3.84718       -0.57933
O         -0.04111       -2.42371        0.10998
O          2.03995       -2.26055        1.32493
O          1.93352       -1.46892       -1.03330
H          2.95857       -2.56454        1.31218
H          1.57353       -0.50944       -0.81876
N          2.29741        3.34760        0.96111
H          2.38878        4.08791        1.64924
C          3.28825        3.48819       -0.11575
H          4.32340        3.45048        0.24207
H          3.12574        2.68196       -0.83351
H          3.12562        4.43973       -0.62649
H          2.42687        2.46269        1.44476
H         -4.33765       -1.44679        1.00189
H         -3.53309       -0.37258        2.18115
H         -5.06135        0.85871        0.54870
H         -3.38730        1.42295        0.51445
H         -4.80262        0.35626       -1.64611
H         -3.18782        0.73234       -1.59418
H         -1.99046       -1.98596        0.97892
H         -2.35101       -1.13325       -0.39502
C         -3.62569       -0.62695        1.12321
C         -4.04080        0.57791        0.27193
N         -2.30540       -1.08170        0.63163
N         -3.93939        0.22250       -1.13898
H         -1.55659       -0.36917        0.86029
