39
2sa1eda1tma_75.log	Energy: -1107745.4445700
S          0.76772       -1.60382       -0.79160
O          0.44767       -0.84872        0.43857
O         -0.02851       -2.82843       -0.96330
O          0.30036       -0.68705       -2.01782
O          2.23703       -1.80086       -0.92167
H          2.85711       -0.73012        0.11659
S         -0.77623        2.16703       -0.25610
O         -0.17400        2.39673        1.05779
O         -1.95864        1.28943       -0.28736
O         -1.42358        3.59515       -0.71236
O          0.22302        1.83789       -1.30433
H         -0.76350        4.27977       -0.54317
H          0.33200        0.28199       -1.77063
H         -2.73707       -2.61892        1.27914
H         -1.68314       -1.20906        1.55753
H         -3.98070       -0.85969        2.56458
H         -3.60609        0.31658        1.29460
H         -5.44589       -1.94502        1.05786
H         -5.63688       -0.39556        0.56425
H         -1.69222       -2.05468       -0.74995
H         -3.31594       -1.52588       -0.84073
C         -2.59834       -1.55358        1.07517
C         -3.81875       -0.73879        1.48607
N         -2.40639       -1.39415       -0.38784
N         -4.96309       -1.14434        0.66541
H         -2.08819       -0.41553       -0.56368
N          3.37600       -0.06114        0.75654
C          2.99616       -0.39524        2.15035
H          1.91890       -0.26355        2.24265
H          3.25436       -1.43711        2.34379
H          3.53529        0.26394        2.83490
C          4.81274       -0.29859        0.49315
H          5.04038       -1.34549        0.69659
H          5.01518       -0.08478       -0.55660
H          5.41491        0.35093        1.13252
C          2.95943        1.32015        0.39833
H          3.11969        1.46879       -0.66968
H          1.89926        1.44488        0.62212
H          3.55861        2.02773        0.97700
