33
2sa1ma1eda_18.log	Energy: -1058427.8549648
S          2.89011        0.03246        0.15075
O          2.70173        1.10902        1.14476
O          2.97521       -1.31384        0.75273
O          1.95533        0.10282       -0.98263
O          4.33324        0.31475       -0.53939
H          5.00521        0.31732        0.15589
S         -2.49584       -0.75295        0.08381
O         -3.25720        0.48791       -0.05563
O         -2.37159       -1.57426       -1.12075
O         -1.17654       -0.56277        0.76539
O         -3.27815       -1.65530        1.19598
H         -4.19653       -1.74841        0.90823
N          0.62874       -2.29359       -0.38508
H         -0.05454       -1.69174        0.12791
H          0.80961       -1.79226       -1.25784
C          0.09961       -3.65816       -0.58879
H          0.80837       -4.24149       -1.17631
H         -0.04442       -4.12485        0.38527
H         -0.85846       -3.57838       -1.10160
H          1.52558       -2.24551        0.13425
H          0.59752        3.61770       -0.38117
H          0.67174        2.08055       -1.27761
H         -1.36101        3.62107       -1.82017
H         -1.75703        1.95171       -1.41610
H         -2.57500        4.22897        0.00217
H         -2.91325        2.64048        0.29575
H          1.04881        1.76875        1.07089
H         -0.49650        2.46506        1.37707
C          0.09038        2.66721       -0.56536
C         -1.35699        2.88540       -1.00979
N          0.08284        1.92867        0.72339
N         -2.16913        3.31208        0.13101
H         -0.36966        0.99535        0.63493
