33
2sa1ma1eda_12.log	Energy: -1058427.5665991
S          2.84416        0.12348       -0.14869
O          2.75257       -1.00699       -1.09611
O          2.81883        1.44789       -0.76393
O          1.89803       -0.03418        0.98713
O          4.28403       -0.02591        0.59588
H          4.97310        0.20363       -0.04235
S         -2.51966       -0.90127       -0.13596
O         -3.03408        0.31725       -0.75719
O         -1.97830       -1.89669       -1.08620
O         -1.59278       -0.66253        0.99755
O         -3.77670       -1.62322        0.60402
H         -4.48609       -1.72376       -0.04516
N          0.55708       -2.35886       -0.09414
H          1.36085       -2.04376       -0.67273
H          0.47851       -1.64106        0.63604
C          0.77201       -3.69651        0.49200
H         -0.07180       -3.94057        1.13696
H          0.84635       -4.43098       -0.30929
H          1.69527       -3.68724        1.07093
H         -0.33467       -2.30407       -0.62932
H          0.62458        2.71290       -0.71974
H         -0.47865        1.39758       -1.15700
H         -1.55972        3.63994       -1.52516
H         -2.42353        2.64404       -0.35102
H         -0.70506        4.93888        0.27754
H         -2.22059        4.61808        0.80348
H          0.70401        1.24000        1.06579
H         -0.36482        2.49583        1.54722
C         -0.32641        2.23513       -0.47514
C         -1.50011        3.20477       -0.52012
N         -0.21350        1.70543        0.91039
N         -1.33707        4.19326        0.54980
H         -0.92113        0.96079        1.07617
