39
2sa1eda1tma_35.log	Energy: -1107748.4151873
S         -0.87676        1.93634       -0.65428
O         -0.85125        2.18151        0.78496
O          0.39845        1.40628       -1.19852
O         -2.04160        1.16095       -1.13560
O         -1.04365        3.42098       -1.29151
H         -1.13022        3.32825       -2.25007
S          1.22192       -1.99659       -0.76074
O          0.51881       -1.74112        0.53835
O          2.53552       -1.29419       -0.75441
O          1.24890       -3.38080       -1.17899
O          0.32193       -1.23911       -1.86562
H          0.38860       -0.26340       -1.72263
H         -2.49303       -1.39529        2.25631
H         -2.08413        0.24301        1.67712
H         -4.53633        0.06264        2.16734
H         -4.21209        0.39134        0.46191
H         -5.06393       -2.17923        1.57770
H         -5.64529       -1.37722        0.27557
H         -1.10410       -1.57496        0.33140
H         -2.71209       -2.00558       -0.10169
C         -2.64587       -0.66698        1.45486
C         -4.12486       -0.36764        1.24525
N         -2.09812       -1.24728        0.20623
N         -4.80344       -1.58497        0.79823
H         -2.08559       -0.50499       -0.52105
N          2.90276        0.59511        1.03237
C          3.17452        1.87349        0.33101
H          3.95304        1.70297       -0.41367
H          2.25722        2.18824       -0.16697
H          3.50360        2.61885        1.05901
C          1.82630        0.73569        2.04516
H          0.95355        1.19518        1.57968
H          1.56515       -0.25925        2.40490
H          2.19308        1.36494        2.86062
C          4.13028        0.00838        1.61695
H          3.87606       -0.94667        2.07690
H          4.85454       -0.16171        0.82013
H          4.53910        0.69299        2.36400
H          2.59306       -0.10975        0.29745
