21
2sa1ma_23.log	Energy: -938854.0177231
S         -1.65038       -1.04274       -0.11681
O         -1.67335       -2.47322        0.06504
O         -0.63021       -0.53943       -1.08793
O         -2.95712       -0.38007       -0.34998
O         -1.20999       -0.33216        1.29898
H         -2.81019        1.13153        0.02737
H         -0.23767       -0.40763        1.41313
S          2.37569       -0.01172        0.13309
O          1.52311       -0.09281        1.30608
O          3.79888       -0.18126        0.23845
O          1.84912       -0.93943       -0.99722
O          2.07398        1.47631       -0.44327
H          0.82148       -0.87787       -1.06486
H          2.74498        1.68735       -1.10871
N         -2.42661        2.04490        0.44846
H         -3.18473        2.67961        0.68870
C         -1.43086        2.65858       -0.47022
H         -0.98192        3.53214        0.00138
H         -0.67083        1.90782       -0.68744
H         -1.93770        2.93943       -1.39247
H         -1.97230        1.70988        1.30336
