36
2sa1dma1eda_07.log	Energy: -1083092.1564548
S          0.75908       -1.94028       -0.76564
O          0.36470       -1.35864        0.56174
O          1.90308       -1.17329       -1.31901
O          0.89209       -3.38059       -0.78721
O         -0.50908       -1.62810       -1.71853
H         -0.74072       -0.67477       -1.65260
S         -1.53084        1.94947       -0.29075
O         -0.24613        2.67169       -0.21761
O         -1.52338        0.86819       -1.29689
O         -2.08766        1.54795        1.00886
O         -2.61549        3.03590       -0.81213
H         -2.30737        3.39066       -1.65722
N         -2.22504       -1.19481        1.17914
C         -3.15495       -1.76754        0.18212
C         -2.38361       -1.73435        2.54318
H         -1.22429       -1.34965        0.87577
H         -4.18139       -1.62228        0.52386
H         -2.99774       -1.25506       -0.76558
H         -2.94080       -2.83001        0.06056
H         -3.39252       -1.52922        2.90501
H         -2.20548       -2.81053        2.52388
H         -1.65290       -1.25595        3.19525
H         -2.31723       -0.15784        1.18637
H          2.41858        1.91754        1.72018
H          1.71296        0.28697        1.51928
H          4.11666        0.14046        2.24009
H          3.84188       -0.57352        0.64577
H          5.15213        1.98732        1.17539
H          5.60737        0.78038        0.16846
H          1.26611        1.84687       -0.33297
H          2.93811        1.79103       -0.66492
C          2.46803        0.98388        1.15312
C          3.86236        0.37103        1.19780
N          2.14136        1.29037       -0.26092
N          4.80668        1.27670        0.53967
H          2.01784        0.38179       -0.78067
