18
2sa1a_05.log	Energy: -914197.0753065
S          2.29688       -0.22716        0.12753
O          1.72085        0.85696        0.91105
O          3.53202       -0.83843        0.53012
O          1.25420       -1.34718       -0.12975
O          2.47980        0.45219       -1.32961
H          2.95126       -0.16111       -1.91239
S         -2.23510       -0.26385       -0.11581
O         -2.58487        1.09664        0.36554
O         -3.27569       -0.95613       -0.84572
O         -0.89031       -0.21003       -0.76372
O         -1.92892       -1.14431        1.21864
H          0.32722       -0.95986       -0.36200
H         -2.70332       -1.69580        1.39400
N         -0.36410        2.49887        0.09770
H         -0.32251        3.41253        0.54124
H          0.40171        1.88762        0.44732
H         -1.30025        2.01129        0.27782
H         -0.25043        2.59166       -0.90983
