33
2sa1ma1eda_87.log	Energy: -1058421.5085285
S         -0.17377       -1.58833       -0.39661
O          1.17231       -1.99032       -0.83689
O         -0.12456       -0.84394        0.90610
O         -0.90302       -0.79481       -1.41881
O         -0.97521       -2.90358       -0.14064
H         -1.88462       -2.64916        0.31917
S         -1.00113        2.33360       -0.01079
O         -1.61257        3.60924        0.22199
O          0.43921        2.27479       -0.28067
O         -1.30699        1.40316        1.22428
O         -1.76011        1.63773       -1.20296
H         -0.83047        0.51157        1.12430
H         -1.40373        0.70609       -1.34990
N         -3.17069       -2.13650        1.02428
H         -3.75055       -2.91021        1.33605
C         -3.94025       -1.22620        0.15716
H         -4.84983       -0.85052        0.63641
H         -3.31085       -0.37851       -0.11588
H         -4.20647       -1.75296       -0.76097
H         -2.85810       -1.64667        1.85890
H          3.15484        1.25257        1.23966
H          2.12271       -0.18830        1.41713
H          4.55639       -0.73722        1.84902
H          3.89442       -1.62113        0.47011
H          5.70609        0.67323        0.32016
H          5.79230       -0.76015       -0.46259
H          1.71290        1.13099       -0.60484
H          3.27017        0.66534       -1.13481
C          2.93835        0.25654        0.84505
C          4.17990       -0.62579        0.82458
N          2.46371        0.41762       -0.55324
N          5.15201       -0.05830       -0.11219
H          2.06754       -0.49431       -0.87528
