33
2sa1ma1eda_183.log	Energy: -1058407.4655757
S          0.64425       -1.59533       -0.47745
O          0.54341       -0.26698       -1.08493
O         -0.56103       -2.43408       -0.71081
O          1.91205       -2.29632       -0.73087
O          0.70486       -1.35548        1.13210
H          3.15501       -1.15834       -0.43468
H         -0.15187       -0.96028        1.39931
S         -2.71647        0.03335        0.25778
O         -2.68503        1.28943       -0.46131
O         -1.78536       -0.17988        1.35373
O         -4.17184       -0.10716        0.92037
O         -2.71164       -1.16748       -0.71864
H         -4.81527        0.33349        0.34731
H         -1.80643       -1.70016       -0.73065
N          3.77522       -0.41087       -0.04263
H          4.67520       -0.45333       -0.51528
C          3.91349       -0.60704        1.41872
H          4.47558        0.22405        1.84660
H          2.91032       -0.64499        1.84359
H          4.42200       -1.54956        1.62201
H          3.31070        0.56204       -0.24624
H          1.03013        1.26129        0.79575
H          2.03799        2.52449        1.51814
H         -0.28591        3.30210        0.97758
H          0.96049        4.24565        0.14336
H         -0.63179        2.11770       -1.09678
H         -0.60145        3.69880       -1.48933
H          1.98687        1.84323       -1.31484
H          3.07858        2.81293       -0.60102
C          1.52766        2.21417        0.60037
C          0.48416        3.25781        0.19210
N          2.52787        1.96937       -0.45483
N         -0.03305        2.93958       -1.13317
