30
2sa1a1eda_117.log	Energy: -1033758.6997267
S         -0.34799       -1.98436       -0.32443
O         -1.15542       -1.40134       -1.41570
O          1.09407       -1.97496       -0.51959
O         -0.75831       -1.43907        1.00406
O         -0.72300       -3.55683       -0.29354
H         -1.68447       -3.64723       -0.34563
S         -2.17297        1.56310        0.03889
O         -3.04494        2.68806        0.20131
O         -0.72562        1.78393       -0.02151
O         -2.46436        0.54259        1.20645
O         -2.61030        0.79279       -1.26442
H         -1.82949       -0.23303        1.16522
H         -2.04926       -0.02506       -1.39121
H          2.27097        2.60619       -0.57442
H          2.54460        2.37758        1.15844
H          4.71755        2.43445       -0.07371
H          4.45564        0.85536        0.67382
H          4.14574        1.44347       -2.17703
H          4.97070        0.22144       -1.45981
H          0.80791        0.94343        0.07164
H          2.06547        0.11275       -0.66429
C          2.65057        1.90956        0.17772
C          4.09854        1.52783       -0.11321
N          1.80945        0.69557        0.14186
N          4.15320        0.81283       -1.38316
H          1.93432        0.09478        1.00503
N          1.91164       -1.02389        2.36755
H          2.11082       -0.81286        3.33954
H          2.43821       -1.85326        2.10927
H          0.92509       -1.27544        2.28450
