27
2sa1tma_01.log	Energy: -988189.7837425
S         -1.13408       -1.60335        0.06571
O          0.03908       -2.23329        0.69539
O         -2.14650       -1.03874        0.94347
O         -0.71909       -0.62284       -0.99550
O         -1.88956       -2.79675       -0.71713
H         -1.22615       -3.42973       -1.02462
S          2.35475        0.25851        0.02186
O          1.29731        1.07915        0.60678
O          3.68239        0.78159       -0.11699
O          2.45389       -1.09093        0.83349
O          1.85731       -0.20030       -1.41323
H          1.56062       -1.52656        0.88907
H          0.88491       -0.41838       -1.36319
N         -1.47696        1.88792       -0.02331
C         -0.73882        2.97158       -0.72106
H          0.27941        2.99390       -0.33534
H         -0.72321        2.75269       -1.78927
H         -1.24819        3.92026       -0.54005
C         -2.85851        1.72742       -0.54736
H         -2.80343        1.53201       -1.61819
H         -3.31650        0.87594       -0.04477
H         -3.41749        2.64544       -0.35569
C         -1.46905        2.07042        1.45374
H         -1.94819        1.20121        1.90306
H         -0.43405        2.13352        1.78527
H         -2.01276        2.98691        1.69297
H         -0.98733        0.99522       -0.23918
