30
2sa1a1eda_42.log	Energy: -1033766.5022861
S         -2.07925       -1.15592       -0.23644
O         -1.94730       -0.26327       -1.40604
O         -1.57740       -2.52399       -0.48604
O         -1.56944       -0.56936        1.00993
O         -3.67287       -1.30221        0.03732
H         -4.08149       -1.69765       -0.74503
S          2.71462       -0.03732       -0.11148
O          2.86742       -1.46274       -0.47620
O          2.53024        0.85770       -1.26644
O          1.72988        0.17070        0.96565
O          4.11535        0.40324        0.58313
H          4.81032        0.36256       -0.08801
H         -0.09556        3.73323       -0.25538
H         -1.04713        3.23152       -1.68078
H         -2.48005        3.87911        0.29845
H         -2.75951        2.22140       -0.24024
H         -2.11190        2.92453        2.30643
H         -1.82025        1.42591        1.68173
H          0.82044        1.66668       -1.13342
H          0.13061        1.39511        0.32287
C         -0.78892        2.98659       -0.64789
C         -2.02846        2.88456        0.24092
N         -0.08841        1.68134       -0.64357
N         -1.64210        2.42050        1.56744
H         -0.69817        0.93973       -1.04483
N          0.76198       -2.50336        0.95098
H          0.61494       -1.58526        1.39204
H         -0.08866       -2.70728        0.37863
H          1.60343       -2.37565        0.34617
H          0.91403       -3.21892        1.65520
