33
2sa1ma1eda_206.log	Energy: -1058393.2720269
S          2.11808       -1.40674       -0.26002
O          0.89851       -1.65484       -1.00719
O          3.25044       -0.75909       -0.88032
O          1.80433       -0.77214        1.12955
O          2.61894       -2.86714        0.19632
H          0.88194       -0.36386        1.17115
H          3.57397       -2.83150        0.34617
S         -1.82807       -0.10516        0.68066
O         -1.98884        0.97984       -0.33019
O         -0.62359        0.04665        1.50674
O         -3.07682       -0.31222        1.43923
O         -1.67742       -1.46960       -0.15013
H         -4.41877        0.39765        0.53685
H         -0.76393       -1.54532       -0.51438
N         -4.63418        0.83203       -0.39003
H         -5.31731        1.57994       -0.30156
C         -5.02538       -0.21171       -1.36847
H         -5.13670        0.23836       -2.35423
H         -4.23135       -0.95850       -1.38750
H         -5.96039       -0.67395       -1.05416
H         -3.67805        1.20422       -0.61611
H          1.18469        3.60183       -0.56057
H          0.53414        2.65957        0.79801
H          2.87365        3.48380        1.13482
H          2.69134        1.72832        1.31086
H          4.59699        2.61865       -0.11665
H          3.68881        1.44469       -0.78754
H          0.00359        1.45188       -1.08519
H          1.51487        1.55139       -1.72070
C          1.27059        2.64985       -0.01277
C          2.66890        2.55674        0.58734
N          0.99139        1.48603       -0.85302
N          3.67042        2.41083       -0.47099
