26
2sa1eda_52.log	Energy: -998256.4243477
S          1.60894        1.25369        0.10099
O          1.94903        0.35338        1.19945
O          1.62500        0.64093       -1.23875
O          0.36044        2.03158        0.35761
O          2.77694        2.36676       -0.01897
H          2.80264        2.87346        0.80454
S         -2.24109        0.40837       -0.07676
O         -3.65217        0.16345       -0.13357
O         -1.30758       -0.67598       -0.35628
O         -1.91202        1.62227       -1.04458
O         -1.90186        0.99579        1.36013
H         -0.98739        1.91891       -0.86211
H         -0.97618        1.34353        1.33270
H          2.13552       -3.57151       -0.42360
H          2.56269       -1.93036        0.16037
H          1.11493       -3.23584        1.80232
H          0.41395       -1.70552        1.27859
H         -0.58405       -4.34147        0.68876
H         -1.34600       -2.87797        0.58039
H          1.53678       -2.27110       -2.21400
H          0.11120       -2.35170       -1.33282
C          1.74821       -2.58892       -0.14390
C          0.68022       -2.71087        0.94585
N          1.08424       -2.00090       -1.34415
N         -0.48972       -3.38166        0.38442
H          1.09597       -0.95203       -1.29673
