24
2sa1dma_34.log	Energy: -963492.9705540
S          2.24306       -0.06764        0.05437
O          1.28595        0.18326        1.11884
O          3.62529        0.28183        0.19483
O          2.17067       -1.57322       -0.38276
O          1.60851        0.71227       -1.19947
H          1.23554       -1.91062       -0.32633
H          2.26686        0.80773       -1.90394
S         -1.54230       -1.47106        0.07780
O         -2.84987       -2.03349        0.23757
O         -0.37762       -2.31600       -0.12897
O         -1.50673       -0.48076       -1.18255
O         -1.29429       -0.50348        1.29490
H         -2.26934        0.12066       -1.15245
H         -0.35008       -0.19702        1.30215
N         -0.87538        2.72478       -0.39425
C         -2.28753        2.58974       -0.67649
C         -0.59739        3.01172        1.00239
H         -0.35944        1.90764       -0.69986
H         -2.79410        3.54322       -0.49338
H         -2.43752        2.35032       -1.73514
H         -2.80687        1.83858       -0.04403
H         -0.99529        4.00035        1.25563
H         -1.04216        2.28245        1.70241
H          0.48224        3.03050        1.16552
