39
2sa1eda1tma_103.log	Energy: -1107736.0976157
S          1.70714        0.14654        1.05186
O          2.86647        0.31473        1.92779
O          0.39930        0.50703        1.62182
O          1.92727        0.80947       -0.27902
O          1.68522       -1.42716        0.74596
H          3.37464        0.66303       -0.61304
H          0.84937       -1.67920        0.26593
S         -1.86433       -1.40266       -0.29941
O         -3.06558       -2.23758       -0.33139
O         -0.57678       -2.09147       -0.46910
O         -1.99936       -0.22940       -1.22687
O         -1.87845       -0.77607        1.18222
H         -3.49319        0.03370       -1.28765
H         -1.03151       -0.28186        1.35679
H         -5.86054        0.56157        0.47998
H         -4.32836       -0.24779        0.91924
H         -4.27482        2.17736        1.56105
H         -3.05003        1.76670        0.35924
H         -5.49008        3.29994       -0.11520
H         -3.97806        3.55105       -0.68397
H         -4.98620       -0.74945       -1.35777
H         -4.91761        0.90566       -1.71710
C         -4.78298        0.52239        0.29512
C         -4.12644        1.87855        0.51675
N         -4.56367        0.14800       -1.12772
N         -4.65768        2.83454       -0.45987
N          4.43475        0.51977       -0.82656
C          4.74612       -0.88924       -0.47866
H          4.52736       -1.03656        0.57905
H          4.10324       -1.54488       -1.06606
H          5.79929       -1.08971       -0.69297
C          4.63107        0.79078       -2.26546
H          4.00181        0.11164       -2.84165
H          4.33565        1.81928       -2.47563
H          5.68170        0.64255       -2.52873
C          5.17646        1.46912        0.03570
H          4.88427        2.48603       -0.22914
H          4.89311        1.27181        1.07020
H          6.25105        1.33496       -0.11466
