36
2sa1dma1eda_12.log	Energy: -1083092.0187290
S          0.05353        2.21607       -0.27260
O          0.23213        1.22525       -1.35253
O         -1.34006        2.28309        0.21208
O          1.06971        2.14547        0.78521
O          0.35481        3.66193       -0.94291
H         -0.27139        3.79584       -1.66721
S         -0.71967       -2.20630       -0.44424
O         -2.15506       -1.98388       -0.75557
O         -0.36323       -1.43049        0.79094
O         -0.26917       -3.58108       -0.46007
O          0.12431       -1.48805       -1.61975
H          0.00706       -0.51306       -1.56299
N         -3.01682        0.14833        0.62207
C         -4.29239        0.65199        0.07768
C         -3.06036       -0.21929        2.05266
H         -2.70339       -0.69348        0.06617
H         -4.58874        1.55221        0.61847
H         -4.15022        0.88717       -0.97696
H         -5.05816       -0.11832        0.18074
H         -3.28626        0.66732        2.64760
H         -3.82881       -0.97966        2.20195
H         -2.08507       -0.62633        2.31802
H         -2.28892        0.87950        0.48106
H          2.90559       -1.66743       -0.50747
H          2.39459       -0.07706       -1.09345
H          4.90358       -0.22543       -0.94610
H          4.24851        1.01885        0.12416
H          5.21047       -1.61435        0.97401
H          5.61513       -0.13995        1.55512
H          1.19621       -0.94123        0.93913
H          2.69169       -0.67624        1.75060
C          2.89885       -0.59869       -0.27979
C          4.30442       -0.06196       -0.04139
N          2.10317       -0.40367        0.95722
N          4.85494       -0.68317        1.16456
H          1.82654        0.59469        1.04566
