33
2sa1ma1eda_136.log	Energy: -1058414.0959663
S         -2.04436        0.94271       -0.30887
O         -1.56393        2.28684       -0.67145
O         -3.44359        0.65005       -0.62779
O         -1.16835       -0.06365       -1.21149
O         -1.70955        0.56958        1.10287
H         -0.54741       -0.61845       -0.65025
H         -2.53084       -0.73087        1.35601
S          1.85840       -1.57761       -0.35563
O          0.45830       -1.58098        0.13800
O          2.42980       -2.88384       -0.63683
O          2.05292       -0.54515       -1.39355
O          2.71396       -1.01240        0.94010
H          1.23498        0.97226       -1.49141
H          3.41473       -1.65737        1.10054
N         -3.22464       -1.54676        1.22357
H         -3.56267       -1.87377        2.12551
C         -2.59905       -2.63386        0.42089
H         -3.27328       -3.48849        0.36986
H         -2.40962       -2.23980       -0.57678
H         -1.64719       -2.90507        0.87574
H         -3.98857       -1.10146        0.70474
H          0.91404        0.92271        0.97563
H          0.47102        2.57709        1.35370
H          2.07190        3.49423       -0.20701
H          2.92905        1.93917       -0.33866
H          0.09329        2.19658       -1.18329
H          1.38939        2.46385       -2.22034
H          1.88201        2.06962        3.06695
H          2.89392        1.18063        2.14328
C          1.31985        1.93436        1.10583
C          1.95320        2.40932       -0.19990
N          2.32438        2.02175        2.15700
N          1.10600        2.00146       -1.35943
