36
2sa1dma1eda_154.log	Energy: -1083075.5719945
S         -1.71627       -1.84320       -0.32800
O         -2.83068       -2.73083       -0.56319
O         -0.39079       -2.49395       -0.16955
O         -1.63659       -0.68675       -1.26926
O         -2.01520       -1.15805        1.12929
H         -1.41585        0.73633       -0.65872
H         -1.17067       -0.83658        1.50496
S          1.59992        0.15741        0.95528
O          2.81449        0.50662        1.68227
O          0.31725        0.32529        1.68268
O          1.51397        0.88985       -0.36322
O          1.76079       -1.37425        0.60412
H          2.89894        0.77785       -1.02313
H          0.89220       -1.79000        0.26386
N          3.92697        0.69166       -1.35059
C          4.39731       -0.69174       -1.07453
C          4.70843        1.73616       -0.64205
H          3.94083        0.86233       -2.35510
H          4.34800       -0.85418        0.00199
H          3.72663       -1.39500       -1.56671
H          5.41923       -0.80763       -1.43954
H          4.55818        1.58260        0.42745
H          5.76375        1.65053       -0.90628
H          4.32333        2.71561       -0.92584
H         -3.66162        1.07536       -1.31893
H         -3.49141        2.83772       -1.42143
H         -2.71907        2.92183        0.93614
H         -3.00502        1.17372        1.10229
H         -0.98054        2.37848       -0.67685
H         -0.72063        1.43888        0.67165
H         -5.72528        2.51215       -0.92322
H         -5.42941        1.42701        0.25853
C         -3.74406        2.01067       -0.74681
C         -2.74251        1.96989        0.40208
N         -5.06897        2.26176       -0.19317
N         -1.38242        1.64550       -0.09692
