30
2sa1a1eda_63.log	Energy: -1033765.6993564
S          2.43682       -0.82657       -0.19621
O          1.57876       -0.62686        1.02834
O          3.22791        0.40919       -0.42675
O          3.16231       -2.07538       -0.23029
O          1.37565       -0.93182       -1.40363
H          0.79325       -0.13763       -1.40332
S         -1.22806        1.73508       -0.19378
O         -0.36104        2.73375        0.46851
O         -0.53072        1.00304       -1.26903
O         -1.99074        0.88168        0.72410
O         -2.39613        2.58678       -0.92608
H         -1.98377        3.17203       -1.57620
H         -1.31293       -1.30365       -0.96565
H         -0.62827       -2.90009       -0.64907
H         -3.11488       -2.90646       -1.21009
H         -2.71685       -3.71468        0.30828
H         -3.66046       -0.92438        0.22690
H         -4.52393       -2.23099        0.73489
H          0.12719       -1.36232        1.01778
H         -1.43334       -0.80534        1.25258
C         -1.34622       -2.16111       -0.29118
C         -2.75392       -2.73577       -0.18507
N         -0.88887       -1.65587        1.03259
N         -3.58938       -1.85809        0.62344
H         -1.04223       -2.34158        1.76955
N          2.14738        2.10843        1.30175
H          2.66347        1.59485        0.52907
H          2.67235        2.90154        1.65722
H          1.20059        2.40042        0.95693
H          2.00863        1.39895        2.02247
