39
2sa1eda1tma_43.log	Energy: -1107747.4051481
S          2.59628       -0.26977       -0.20921
O          3.21208        1.04648       -0.38206
O          2.73811       -0.86979        1.11965
O          1.20056       -0.34826       -0.72554
O          3.36484       -1.27182       -1.25474
H          4.31578       -1.14291       -1.13868
S         -2.94120        0.29018       -0.28662
O         -2.76148        1.39224       -1.25964
O         -3.72490       -0.83925       -0.78204
O         -1.67958       -0.07109        0.38615
O         -3.80085        0.94025        0.95129
H         -4.69627        1.10894        0.62904
H         -0.82802        3.67557        0.50944
H         -0.80034        2.07078        1.28165
H          1.08466        3.66537        2.03134
H          1.64649        2.11341        1.41865
H          2.23362        4.63570        0.32772
H          2.73511        3.14372       -0.17810
H         -1.11545        1.98584       -1.11285
H          0.43650        2.71724       -1.28789
C         -0.25417        2.75343        0.62988
C          1.15948        3.04989        1.12899
N         -0.16445        2.12149       -0.70947
N          1.92822        3.70675        0.07187
H          0.27239        1.18015       -0.65677
N         -0.10850       -2.58043        0.31512
C         -1.32544       -3.10384       -0.35877
H         -2.15781       -2.42149       -0.19296
H         -1.12641       -3.17662       -1.42837
H         -1.54460       -4.09362        0.04795
C          1.07042       -3.44522        0.04704
H          1.26219       -3.45334       -1.02592
H          1.93305       -3.02951        0.56673
H          0.85170       -4.45429        0.40256
C         -0.31662       -2.38361        1.77453
H          0.58964       -1.93475        2.18338
H         -1.16153       -1.70853        1.90200
H         -0.50813       -3.35539        2.23515
H          0.11683       -1.64142       -0.07798
