30
2sa1a1eda_37.log	Energy: -1033766.7922833
S          2.71025       -0.40665       -0.12736
O          1.62747       -0.53250       -1.12580
O          3.07829        0.96775        0.21741
O          2.48179       -1.27518        1.05384
O          3.97831       -1.04801       -0.91601
H          4.77166       -0.88195       -0.38890
S         -2.72251       -0.38292       -0.13054
O         -2.72614        1.07509       -0.39622
O         -1.88490       -1.10365       -1.11126
O         -2.46059       -0.76629        1.26336
O         -4.25321       -0.86978       -0.35305
H         -4.55327       -0.54436       -1.21248
H          1.45661        2.63778       -0.32745
H          0.00221        3.62829       -0.65645
H          0.24366        3.16882        1.76883
H         -1.24539        2.47345        1.10815
H          1.14781        0.96921        1.84238
H         -0.43348        0.71565        2.25640
H          0.01097        1.86416       -2.20161
H          0.41354        0.71942       -1.07972
C          0.36509        2.66219       -0.29780
C         -0.15526        2.38531        1.10910
N         -0.12430        1.60271       -1.22769
N          0.18696        1.02942        1.51938
H         -1.13590        1.40902       -1.05701
N         -0.07740       -2.17110        0.74464
H          0.88815       -1.84592        0.99150
H         -0.16849       -3.17585        0.86411
H         -0.81762       -1.67841        1.27367
H         -0.26820       -1.91773       -0.23541
