33
2sa1ma1eda_03.log	Energy: -1058431.1372974
S         -1.13732        1.48800       -0.56820
O         -0.27000        2.64733       -0.86961
O         -0.70680        0.85867        0.72284
O         -2.57227        1.70009       -0.67718
O         -0.83094        0.36241       -1.68620
H          0.12709        0.12122       -1.65609
S          2.23391       -1.20879       -0.20303
O          2.61967       -0.38919        0.96682
O          1.40755       -2.37503        0.15168
O          1.73757       -0.39300       -1.32170
O          3.61069       -1.82495       -0.80258
H          3.90376       -2.53134       -0.21116
N          1.98011        2.26278        0.61713
H          2.19020        1.23962        0.69113
H          2.81040        2.72653        0.25521
C          1.57074        2.79367        1.93808
H          1.37109        3.86145        1.85135
H          0.65942        2.26926        2.22275
H          2.36017        2.60949        2.66657
H          1.19231        2.39751       -0.06576
H         -2.65499       -3.21298        1.03878
H         -2.07119       -2.12350        2.32270
H         -4.45863       -1.59906        1.53731
H         -3.33526       -0.24296        1.40249
H         -4.67506       -1.52748       -0.73797
H         -3.70227       -0.18635       -0.77255
H         -0.42692       -2.32042        0.42291
H         -1.66019       -1.70725       -0.55371
C         -2.40120       -2.17851        1.28323
C         -3.57724       -1.23272        1.00099
N         -1.28906       -1.75613        0.40564
N         -3.78970       -1.14328       -0.43927
H         -1.00219       -0.76981        0.63479
