28
2sa1a1dma_28.log	Energy: -999029.7558727
S          2.22925       -1.12254        0.02785
O          1.88199       -0.09670        1.06901
O          2.84897       -0.41500       -1.13000
O          2.92968       -2.28721        0.51098
O          0.80560       -1.67175       -0.50466
H          0.28204       -0.89557       -0.81146
S         -0.97511        1.47739        0.12325
O         -0.82137        0.43192       -0.95554
O         -0.08925        2.62539       -0.12072
O         -2.38774        1.78336        0.35859
O         -0.50967        0.76137        1.47083
H          0.43205        0.40336        1.37444
N         -3.01762       -0.91226       -0.15563
C         -4.04549       -1.45600       -1.06686
C         -2.56203       -1.84112        0.91016
H         -2.17412       -0.58382       -0.68818
H         -4.93724       -1.71742       -0.49556
H         -4.28928       -0.70004       -1.81297
H         -3.64695       -2.34488       -1.55680
H         -3.41881       -2.14410        1.51342
H         -2.09600       -2.70953        0.44416
H         -1.82775       -1.31573        1.52111
H         -3.32265       -0.02065        0.26395
N          2.58833        2.14246       -0.52685
H          1.56728        2.35872       -0.45120
H          2.71360        1.14603       -0.90080
H          3.06408        2.82899       -1.10500
H          2.97218        2.13726        0.41690
