24
2sa1dma_17.log	Energy: -963522.6787410
S         -1.65136       -1.29445       -0.00630
O         -2.14473       -0.23739       -0.92416
O         -0.77035       -0.63158        1.02866
O         -2.62850       -2.20523        0.52845
O         -0.64369       -2.21269       -0.87487
H          0.04121       -1.64968       -1.27410
S          2.30681        0.03125        0.10313
O          3.73745        0.00544        0.23198
O          1.60313        1.29168       -0.07349
O          1.90427       -0.80064       -1.24685
O          1.67114       -0.80911        1.22890
H          2.53820       -1.52559       -1.35793
H          0.61113       -0.79834        1.17638
N         -1.09850        2.08619       -0.06895
C         -1.71103        2.43238        1.23284
C         -1.13920        3.16382       -1.07883
H         -0.12003        1.78943        0.07496
H         -2.76388        2.66949        1.07497
H         -1.62055        1.56496        1.88629
H         -1.19336        3.29153        1.66206
H         -2.17948        3.41632       -1.28773
H         -0.61055        4.03940       -0.69963
H         -0.65690        2.80700       -1.98853
H         -1.57184        1.22243       -0.44641
