31
2sa1a1tma_04.log	Energy: -1023691.8294468
S          2.56236       -0.56781        0.12716
O          2.88070        0.49139        1.08737
O          2.35550       -1.90136        0.73473
O          1.50273       -0.21844       -0.84028
O          3.87067       -0.71775       -0.83811
H          4.63945       -0.87271       -0.27277
S         -2.56259       -0.56736        0.12736
O         -2.35698       -1.90092        0.73524
O         -2.88103        0.49226        1.08704
O         -1.50198       -0.21871       -0.83934
O         -3.87014       -0.71662       -0.83908
H         -4.63949       -0.87109       -0.27438
N         -0.00076       -2.62679       -0.45283
H         -0.00187       -1.75234       -0.99879
H         -0.86913       -2.58656        0.12474
H         -0.00043       -3.43671       -1.06482
H          0.86808       -2.58539        0.12409
N          0.00052        2.14022       -0.13045
C          1.22978        2.78227       -0.66590
H          2.09795        2.30675       -0.21202
H          1.25446        2.64396       -1.74654
H          1.19804        3.84542       -0.41787
C         -1.22847        2.78214       -0.66667
H         -1.25251        2.64371       -1.74732
H         -2.09688        2.30665       -0.21324
H         -1.19693        3.84532       -0.41876
C          0.00007        2.11883        1.36028
H         -0.90060        1.60073        1.69234
H          0.90056        1.60077        1.69285
H         -0.00007        3.15081        1.71848
H          0.00071        1.15107       -0.44207
