34
2sa1ma1tma_43.log	Energy: -1048332.9532910
S          0.46788       -1.59727       -0.07106
O         -0.78937       -2.15435       -0.62529
O          1.58770       -2.51779        0.03560
O          0.81425       -0.31240       -0.75029
O          0.14415       -1.19623        1.45960
H         -0.67561       -0.65759        1.46201
S         -3.05227        0.33701       -0.04383
O         -1.99731        0.46888        0.94804
O         -3.74673        1.50338       -0.52294
O         -2.56100       -0.47410       -1.27457
O         -4.11070       -0.65109        0.66186
H         -1.83975       -1.17355       -1.03029
H         -4.91695       -0.68422        0.12694
N          0.70522        2.37339        0.66994
H          0.39991        1.44181        0.39547
C          0.22090        3.32316       -0.33628
H         -0.86661        3.29951       -0.48415
H          0.50978        4.34058       -0.05583
H          0.69188        3.09793       -1.29845
H          0.24724        2.56240        1.55633
N          3.32075        0.35107       -0.12657
C          3.34149        0.21104        1.35296
H          2.65568        0.95185        1.76532
H          3.00447       -0.79407        1.60906
H          4.35906        0.38024        1.71281
C          4.15001       -0.68417       -0.79190
H          3.76441       -1.66392       -0.50716
H          4.06082       -0.56051       -1.87162
H          5.19100       -0.56263       -0.48417
C          3.67049        1.72856       -0.54941
H          3.56251        1.80086       -1.63254
H          2.97186        2.40884       -0.05657
H          4.70379        1.93936       -0.26351
H          2.31969        0.16393       -0.41725
