37
2sa1dma1tma_47.log	Energy: -1073002.3194789
S          1.60485       -0.93305        0.17972
O          0.37802       -1.60897       -0.27224
O          2.65133       -1.79069        0.73463
O          2.15020       -0.02327       -0.88718
O          1.20579        0.02972        1.39623
H          0.39331        0.55198        1.15423
S         -2.15421        0.75059        0.05965
O         -3.13803        1.63901       -0.55827
O         -0.94390        1.38696        0.59893
O         -2.79853       -0.15054        1.08073
O         -1.70652       -0.21752       -1.13506
H         -4.13473       -0.49808        0.62451
H         -0.91601       -0.75881       -0.85627
N         -5.13966       -0.68339        0.19994
C         -4.97051       -0.98944       -1.24191
C         -5.96879        0.51664        0.45841
H         -5.52971       -1.49182        0.68117
H         -4.51805       -0.11692       -1.71412
H         -4.29017       -1.83479       -1.34273
H         -5.94015       -1.21544       -1.69027
H         -5.44634        1.37042        0.02465
H         -6.95637        0.39211        0.00893
H         -6.05799        0.65736        1.53577
N          4.59564        0.49160       -0.27172
C          5.38407       -0.71587       -0.60934
H          4.95092       -1.55922       -0.07047
H          5.30314       -0.89616       -1.68194
H          6.43010       -0.56150       -0.33120
C          4.99936        1.67188       -1.06289
H          4.88070        1.44479       -2.12293
H          4.34987        2.50819       -0.80223
H          6.04122        1.92360       -0.84776
C          4.60601        0.76365        1.18641
H          3.92334        1.58834        1.39306
H          4.24539       -0.12781        1.70002
H          5.62155        1.01736        1.50217
H          3.55998        0.26943       -0.53835
