30
2sa1a1eda_93.log	Energy: -1033766.7200256
S         -0.91942        1.73163       -0.30445
O         -0.74101        1.14209        1.08125
O         -0.97967        0.61304       -1.28120
O         -1.97108        2.71477       -0.38607
O          0.45661        2.50246       -0.59148
H          1.17043        1.82994       -0.74226
S          2.19642       -0.86088       -0.36286
O          1.73452       -1.12405        1.04808
O          2.35445        0.60867       -0.54974
O          3.29923       -1.68894       -0.78312
O          0.94200       -1.27808       -1.29242
H          0.33192       -0.50764       -1.41488
H         -2.45627       -3.05400        1.30656
H         -2.56004       -1.57468        2.30174
H         -4.32704       -1.70501        0.44920
H         -3.31897       -0.26184        0.38024
H         -3.52274       -2.24479       -1.60936
H         -2.55175       -0.90197       -1.60964
H         -0.22927       -2.06833        1.40660
H         -0.87825       -1.85427       -0.09739
C         -2.37210       -1.96494        1.29946
C         -3.31102       -1.34992        0.25358
N         -0.99077       -1.61452        0.89964
N         -2.84534       -1.71566       -1.07869
H         -0.83257       -0.58251        0.97872
N          1.72695        1.30621        2.13312
H          0.73008        1.48392        1.85522
H          1.90743        1.52802        3.10717
H          1.86943        0.28323        1.89513
H          2.33808        1.83524        1.51097
