28
2sa1a1dma_47.log	Energy: -999021.2091812
S         -2.32020       -0.21690       -0.04183
O         -2.35300       -0.20677        1.41058
O         -1.67557        0.88598       -0.71938
O         -1.83142       -1.59418       -0.57178
O         -3.82143       -0.23981       -0.59826
H         -4.32660       -0.91614       -0.12417
S          1.65487       -1.29466       -0.08068
O          2.26139       -0.63874        1.08363
O          1.43551       -0.42461       -1.24030
O          2.73207       -2.37252       -0.63060
O          0.45780       -2.10076        0.29214
H          2.91045       -3.01004        0.07432
H         -0.86976       -1.81321       -0.24145
N          0.99263        2.17441       -0.32462
C          0.25987        3.26737       -0.99207
C          2.43538        2.43712       -0.13290
H          0.57646        1.96011        0.63553
H          0.69341        3.44338       -1.97816
H         -0.78418        2.97584       -1.09025
H          0.34440        4.17302       -0.38847
H          2.91080        2.58189       -1.10419
H          2.55528        3.33363        0.47834
H          2.87290        1.57293        0.36829
H          0.90222        1.28661       -0.85036
N          0.22609        1.33145        2.21043
H          0.30641        1.88689        3.05552
H          0.90696        0.57184        2.26129
H         -0.69882        0.90172        2.20497
