30
2sa1a1eda_160.log	Energy: -1033752.5712182
S          1.67318       -1.84276        0.15153
O          2.36287       -3.09730        0.30220
O          1.78456       -0.81626        1.17462
O          2.28704       -1.08527       -1.16649
O          0.21313       -2.10156       -0.24336
H          2.37579       -1.73202       -1.88076
H         -0.38202       -1.19007       -0.30860
S         -2.12306        0.50239        0.35027
O         -2.76473       -0.56367        1.10964
O         -0.98319       -0.01259       -0.50797
O         -3.17032        1.09531       -0.67478
O         -1.64552        1.66906        1.12053
H         -3.85655        0.37561       -0.89959
H         -0.02158        1.81880        1.06703
H          0.96990        1.33459       -1.11180
H          0.54665        3.02264       -0.82442
H          2.81850        2.75120       -1.88156
H          2.86292        3.63321       -0.35395
H          3.51636        0.77197       -0.56086
H          4.55517        2.00171       -0.21457
H          1.44160        0.97271        1.09549
H          1.43412        2.58089        1.50327
C          1.24338        2.22852       -0.54928
C          2.68766        2.64358       -0.79395
N          1.01591        1.89027        0.88238
N          3.59074        1.70030       -0.15363
N         -4.89953       -0.90757       -0.97784
H         -4.60940       -1.36892       -0.11721
H         -4.77371       -1.55771       -1.74626
H         -5.88637       -0.68398       -0.90714
