28
2sa1a1dma_32.log	Energy: -999023.8645063
S          1.95985        0.26030        0.28687
O          2.15104        0.59109       -1.11663
O          1.16789        1.19588        1.08233
O          1.36703       -1.19150        0.41453
O          3.32526        0.07017        1.00153
H          3.94691       -0.49964        0.38569
S         -2.32056       -1.21930       -0.12146
O         -3.06195       -2.23729       -0.84131
O         -3.05073        0.04982        0.11366
O         -2.01112       -1.83606        1.36033
O         -0.95011       -0.92429       -0.62070
H         -2.70670       -2.47720        1.55751
H          0.42656       -1.20818        0.03329
N         -1.24369        2.05053       -0.04231
C         -0.92972        2.21054       -1.48088
C         -1.69966        3.28471        0.62634
H         -1.97536        1.29930        0.05718
H         -0.13004        2.94353       -1.59511
H         -0.60423        1.24340       -1.86290
H         -1.82890        2.53949       -2.00369
H         -0.92145        4.04590        0.55345
H         -2.61265        3.63728        0.14453
H         -1.90058        3.06326        1.67443
H         -0.39374        1.69401        0.43300
N          4.70428       -1.34468       -0.69277
H          4.43125       -2.32165       -0.64181
H          5.71758       -1.29402       -0.67657
H          4.37631       -0.97661       -1.58262
