39
2sa1eda1tma_68.log	Energy: -1107745.0310601
S          2.27414        1.32599       -0.11142
O          1.95264        2.75086       -0.03731
O          2.30080        0.62776        1.18269
O          1.49985        0.57844       -1.13564
O          3.79303        1.22685       -0.71980
H          4.33184        1.88804       -0.26539
S         -2.54056       -1.31671       -0.08750
O         -1.63095       -1.08072        1.03417
O         -3.21083       -0.07963       -0.56428
O         -1.96157       -2.11572       -1.18482
O         -3.72247       -2.22905        0.55458
H         -4.30824       -2.51071       -0.16115
H          1.54375       -3.87715       -0.50291
H          2.06201       -2.78700       -1.81565
H          3.85514       -3.23359       -0.04521
H          3.49846       -1.52609       -0.30102
H          3.26776       -2.88862        2.11105
H          2.73469       -1.35584        1.77909
H         -0.15695       -2.19770       -0.83367
H          0.62272       -1.93870        0.60991
C          1.86577       -2.86129       -0.74389
C          3.08803       -2.46454        0.08911
N          0.75230       -1.94625       -0.40912
N          2.70078       -2.32958        1.48950
H          0.98697       -0.96534       -0.69312
N         -1.88116        2.16241        0.14817
C         -1.15016        2.44964       -1.11650
H         -0.43209        1.65049       -1.30233
H         -1.87895        2.50386       -1.92577
H         -0.60726        3.38980       -1.00840
C         -2.90904        3.19033        0.42835
H         -3.59325        3.24605       -0.41885
H         -3.46152        2.90505        1.32401
H         -2.41958        4.15440        0.58103
C         -0.95376        1.97553        1.29766
H         -1.54455        1.81307        2.19886
H         -0.34397        1.09317        1.11703
H         -0.31564        2.85558        1.38801
H         -2.39134        1.25835       -0.01770
