36
2sa1dma1eda_245.log	Energy: -1083056.8375487
S         -3.08191        0.04887       -0.29873
O         -4.41935        0.33056       -0.74770
O         -1.94623        0.20767       -1.19190
O         -2.73774        1.05848        0.91743
O         -3.07080       -1.34938        0.37047
H         -3.53187        1.17810        1.45794
H         -2.12915       -1.77620        0.42911
S          0.46022       -1.77865        0.23733
O         -0.82759       -2.47857        0.44251
O          1.64973       -2.61111        0.27616
O          0.43272       -1.20813       -1.27678
O          0.54488       -0.56532        1.10390
H         -0.39059       -0.68576       -1.39042
H          1.91588        0.15349        1.12167
N         -0.27914        3.06385        0.05418
C          0.20789        2.91992        1.41403
C          0.60782        2.46997       -0.92852
H         -1.19077        2.62478       -0.01471
H          1.16465        3.45057        1.51362
H         -0.49456        3.38649        2.10980
H          0.34445        1.87006        1.72486
H          1.56224        3.01280       -0.93549
H          0.81598        1.40086       -0.74939
H          0.16568        2.56129       -1.92399
H          4.89471       -0.04615        0.95480
H          3.67722       -1.36357        0.98272
H          4.58939       -0.93978       -1.34138
H          2.84505       -0.72905       -1.21966
H          4.81468        1.39423       -1.53956
H          3.30373        1.26272       -2.16014
H          3.08835        0.87914        2.10732
H          2.92257        1.41265        0.52534
C          3.90663       -0.36413        0.61101
C          3.80500       -0.30636       -0.91309
N          2.89800        0.59106        1.15064
N          3.86833        1.09364       -1.33674
