34
2sa1ma1tma_56.log	Energy: -1048332.3368006
S          0.44327       -1.45737        0.39774
O         -0.42194       -0.94585        1.49508
O          0.67686       -0.39321       -0.62370
O          1.67011       -2.09177        0.85900
O         -0.38331       -2.60442       -0.34434
H         -1.22758       -2.21255       -0.65432
S         -3.09402        0.17282       -0.34721
O         -4.48662        0.54061       -0.35922
O         -2.64088       -1.07014       -0.94095
O         -2.27961        1.32405       -1.14478
O         -2.56008        0.30669        1.10601
H         -2.78261        2.14681       -1.06540
H         -1.67034       -0.20532        1.24833
N          0.68114        2.49717        0.16408
H          0.34782        3.34700       -0.27991
C          0.23842        2.46041        1.56195
H         -0.84448        2.58494        1.69457
H          0.50345        1.49247        1.99583
H          0.74818        3.24377        2.13172
H          0.26034        1.71524       -0.33511
N          3.23542        0.37613       -0.50516
C          3.98946       -0.82511       -0.94283
H          3.67121       -1.66750       -0.32784
H          3.75134       -1.02615       -1.98781
H          5.05950       -0.63630       -0.83060
C          3.49341        1.55656       -1.36322
H          3.25336        1.30089       -2.39609
H          2.84362        2.36138       -1.01459
H          4.54734        1.83342       -1.28283
C          3.47262        0.68195        0.92948
H          2.85747        1.54357        1.19060
H          3.17657       -0.18887        1.51593
H          4.53256        0.90306        1.07557
H          2.20865        0.13331       -0.58830
