26
2sa1eda_44.log	Energy: -998254.1782466
S         -0.93995        1.63525        0.04456
O         -1.04750        0.82061        1.26987
O          0.43701        2.10344       -0.24855
O         -1.61589        1.04663       -1.11366
O         -1.73674        2.98471        0.45285
H         -1.53449        3.66296       -0.20615
S          2.66445       -0.59646       -0.15323
O          3.86006       -1.21507       -0.66314
O          1.42184       -1.33778       -0.06590
O          2.92529       -0.12130        1.36666
O          2.46267        0.74192       -0.92181
H          3.80311        0.28322        1.42247
H          1.61106        1.24229       -0.64945
H         -2.53962       -3.32607        0.75360
H         -2.71442       -2.02691        1.96613
H         -4.42760       -1.91380        0.05514
H         -3.46041       -0.44752        0.24800
H         -3.50322       -2.13228       -2.02412
H         -2.67018       -0.71492       -1.79175
H         -0.36416       -2.35631        1.03301
H         -1.00067       -1.82397       -0.40354
C         -2.48965       -2.24743        0.92098
C         -3.41919       -1.50090       -0.04492
N         -1.11006       -1.79912        0.62154
N         -2.89262       -1.62447       -1.39968
H         -0.97356       -0.79751        0.91556
