28
2sa2ma_38.log	Energy: -999018.3572887
S         -2.75856       -0.87105        0.07187
O         -3.00599        0.44915       -0.57865
O         -2.87882       -0.84413        1.51624
O         -3.96118       -1.83717       -0.43033
O         -1.52533       -1.49653       -0.47388
H         -3.82205       -2.02420       -1.36819
H         -0.30008       -0.56845       -0.77951
S          1.52407        0.29292        0.08575
O          2.62380        0.99541       -0.61539
O          0.42426        0.09130       -1.04303
O          1.94625       -1.05910        0.54538
O          0.90595        1.09184        1.15973
H          3.39530       -1.39743       -0.09998
H         -0.60840        1.78487        0.90548
N         -1.44387        2.29532        0.53393
H         -2.12367        1.57471        0.15403
C         -1.00842        3.19319       -0.55934
H         -1.87457        3.70761       -0.97501
H         -0.28136        3.91062       -0.17920
H         -0.54338        2.57205       -1.32459
H         -1.89142        2.79515        1.29846
N          4.30692       -1.08534       -0.55352
H          4.57799       -1.71024       -1.30840
C          5.36491       -0.90295        0.46445
H          6.25932       -0.48684        0.00145
H          4.98311       -0.21381        1.21708
H          5.59040       -1.86252        0.92841
H          3.97879       -0.16897       -0.92628
