38
2sa2eda_210.log	Energy: -1117810.1816628
S          2.26604       -1.14029        0.13148
O          3.68404       -1.17596        0.48443
O          1.38512       -0.65747        1.22452
O          2.05810       -0.29580       -1.10865
O          1.82746       -2.59878       -0.24264
H          3.02596        0.73569       -1.02174
H          0.82658       -2.65183       -0.34386
S         -1.66401       -1.52295       -0.18963
O         -3.09468       -1.78359       -0.08985
O         -0.79688       -2.70007       -0.37572
O         -1.32591       -0.42776       -1.14866
O         -1.28974       -0.90251        1.26758
H         -1.70175        0.94652       -0.47154
H         -0.30415       -0.87695        1.34173
H         -3.48133        3.29583        0.05134
H         -2.98940        2.68396       -1.55102
H         -5.26351        1.79914       -0.76716
H         -4.08467        0.53912       -1.15246
H         -5.26445        0.99670        1.36966
H         -4.21716       -0.19931        0.90572
H         -1.16957        2.40471        0.16820
H         -2.27658        1.43565        1.00801
C         -3.21367        2.40266       -0.51979
C         -4.32139        1.34246       -0.44702
N         -2.00451        1.80476        0.08615
N         -4.38652        0.80426        0.90780
H          2.09927        3.59737       -0.71408
H          1.94744        3.71746        1.02797
H          4.18547        3.01720        0.65086
H          3.32509        1.58872        1.26353
H          4.06336        2.06465       -1.55184
H          4.61751        0.88784       -0.51298
H          0.89939        1.53340       -0.64706
H          0.90017        1.49371        0.94327
C          2.05773        3.00195        0.20647
C          3.39886        2.29063        0.42863
N          0.87287        2.15279        0.16370
N          3.82113        1.48272       -0.75248
