38
2sa2eda_287.log	Energy: -1117795.7970248
S          0.06378       -1.62997       -0.23147
O          0.33634       -0.78314       -1.40035
O         -1.27344       -2.26629       -0.24957
O          1.16196       -2.57738        0.05212
O          0.08807       -0.67198        1.06719
H          2.50160       -1.97078       -0.64185
H         -0.71300       -0.10323        1.04589
S         -3.49671        0.26288        0.18058
O         -4.50044        1.16087       -0.32459
O         -2.21108        0.77125        0.63022
O         -4.07209       -0.49846        1.47869
O         -3.30521       -0.88082       -0.85745
H         -4.98557       -0.76983        1.30735
H         -2.47990       -1.45775       -0.64493
H          4.17604        0.47237       -1.04462
H          2.41425        0.40861       -0.79549
H          3.67692        0.92892        1.32606
H          2.74492       -0.57415        1.45073
H          5.64163       -0.35024        1.23828
H          4.74477       -1.39464        2.11558
H          3.32991       -1.52546       -2.04032
H          4.19079       -1.91526       -0.63817
C          3.36565       -0.05415       -0.53366
C          3.60735       -0.10377        0.96928
N          3.35168       -1.46389       -1.02520
N          4.80298       -0.92053        1.22249
H          1.29869        1.61181        0.93400
H          1.11872        3.20728        1.64265
H         -0.71409        2.75037        0.05351
H          0.29515        4.07421       -0.55725
H          0.31224        1.30574       -1.51888
H          0.11197        2.68176       -2.37222
H          2.75285        2.86678       -0.72316
H          2.88067        4.01220        0.42715
C          1.34473        2.68530        0.70726
C          0.27929        2.99792       -0.34531
N          2.70749        3.02240        0.28350
N          0.60262        2.28066       -1.58160
