34
2sa2dma_96.log	Energy: -1048326.1658474
S         -3.27561        0.34187       -0.05781
O         -4.28019        1.21005       -0.60986
O         -2.06643        0.88949        0.53331
O         -3.92139       -0.52021        1.14132
O         -2.92882       -0.73414       -1.13011
H         -4.79501       -0.83608        0.86851
H         -2.10595       -1.28507       -0.86481
S          0.38020       -1.39609       -0.11001
O          0.78872       -0.45993       -1.16256
O         -0.90529       -2.07950       -0.37237
O          1.46018       -2.33053        0.28460
O          0.17085       -0.53119        1.23693
H          2.85151       -1.60550        0.19733
H         -0.63417        0.02220        1.12373
N          3.79764       -1.10767        0.18184
C          3.81927       -0.09764        1.27450
C          4.01600       -0.52483       -1.16634
H          4.49240       -1.83103        0.36358
H          3.15952        0.72626        0.97655
H          3.46130       -0.56963        2.18939
H          4.83887        0.27012        1.40448
H          3.21480        0.19029       -1.34768
H          4.98860       -0.03083       -1.19475
H          3.96702       -1.32283       -1.90680
N          1.81345        2.17273       -0.05367
C          2.04249        3.15797       -1.09962
C          1.18846        2.75215        1.12771
H          1.21890        1.43216       -0.42081
H          2.78191        3.89249       -0.76045
H          2.44012        2.66579       -1.99238
H          1.13082        3.70610       -1.39016
H          1.86444        3.49098        1.57387
H          0.22997        3.25185        0.91440
H          1.00552        1.96671        1.86633
