38
2sa2eda_269.log	Energy: -1117800.3966630
S          0.26885        2.11937        0.06382
O         -0.30817        1.74243       -1.21842
O         -0.36201        1.46193        1.23217
O          1.75191        2.04795        0.13481
O         -0.07082        3.69560        0.21145
H          0.35353        4.02632        1.01506
S          3.50671       -0.92724       -0.15701
O          2.20585       -1.55720       -0.01569
O          4.60067       -1.65009       -0.74855
O          3.39321        0.44072       -0.88395
O          3.88694       -0.52071        1.35704
H          2.66753        1.05997       -0.49706
H          4.79268       -0.17859        1.37411
H         -1.74026       -0.79629       -0.75397
H         -0.16611       -1.43370       -1.25867
H         -2.09828       -3.11856       -1.42469
H         -0.76075       -3.68314       -0.41385
H         -3.28331       -2.52778        0.55724
H         -2.61042       -3.99508        0.95061
H         -0.44160       -0.21512        1.04717
H         -1.02241       -1.76736        1.48022
C         -0.96828       -1.53419       -0.52798
C         -1.56379       -2.94092       -0.48234
N         -0.42182       -1.23657        0.82618
N         -2.40199       -3.03351        0.71161
H          0.55767       -1.53751        0.88465
H         -5.81367        0.56500       -0.06666
H         -5.21254       -0.11848        1.45113
H         -3.90463        1.86384        0.76933
H         -2.89869        0.42516        0.83694
H         -3.93276        1.62544       -1.62580
H         -2.36940        1.39386       -1.20127
H         -5.60152       -1.78630       -0.33238
H         -4.36810       -1.09929       -1.16807
C         -4.96740        0.02946        0.39416
C         -3.71665        0.89621        0.28194
N         -4.73056       -1.27530       -0.23229
N         -3.30844        1.00756       -1.11670
