34
2sa2dma_83.log	Energy: -1048334.9900236
S         -0.30601       -1.53031       -0.45670
O          0.21854       -0.44781       -1.35926
O         -1.48679       -2.18078       -1.00310
O          0.82969       -2.64693       -0.39920
O         -0.47791       -1.00930        0.92175
H          1.65214       -2.23018       -0.06245
H         -2.15644       -0.61526        1.12895
S          3.15938        0.38501        0.24445
O          4.48148        0.93437        0.07927
O          2.95630       -1.04181        0.40839
O          2.52450        1.04986        1.57563
O          2.24739        0.92838       -0.89029
H          2.99877        1.87601        1.74450
H          1.41049        0.33111       -1.05212
N         -3.03549       -0.07985        0.95681
C         -3.41578        0.66602        2.16900
C         -4.08283       -0.97347        0.42217
H         -2.71116        0.61415        0.19060
H         -3.69953       -0.03128        2.95931
H         -2.56210        1.25977        2.49799
H         -4.25702        1.32417        1.94240
H         -4.37311       -1.69595        1.18709
H         -4.94989       -0.37731        0.12982
H         -3.66619       -1.50115       -0.43616
N         -1.89459        1.61678       -0.87125
C         -0.96560        2.38469       -0.03735
C         -2.69010        2.45599       -1.76401
H         -1.33533        0.95949       -1.41778
H         -1.53404        3.04867        0.62372
H         -0.37483        1.69341        0.56977
H         -0.27816        2.99934       -0.63391
H         -3.34360        3.10501       -1.17151
H         -2.06820        3.09451       -2.40710
H         -3.31507        1.82471       -2.40030
