22
2sa2a_00.log	Energy: -949710.1886212
S         -2.42717        0.00079        0.08287
O         -1.59613       -0.00437       -1.13017
O         -2.28958        1.23910        0.87871
O         -2.29524       -1.23284        0.88647
O         -3.94193        0.00252       -0.49489
H         -4.55433        0.00291        0.25369
S          2.42759       -0.00071        0.08166
O          1.60223        0.00511       -1.13481
O          2.28681       -1.23960        0.87644
O          3.94528       -0.00155       -0.48797
O          2.29131        1.23219        0.88600
H          4.55379       -0.00481        0.26375
H          0.86041       -2.07818        0.30990
N          0.00369        2.26356       -0.24327
H          0.00928        1.55619       -0.99092
H          0.00419        3.20056       -0.63486
H         -0.86098        2.08265        0.31366
H          0.86374        2.08501        0.32104
N         -0.00610       -2.26392       -0.24328
H         -0.86432       -2.09047        0.32469
H         -0.00266       -3.20083       -0.63510
H         -0.02087       -1.55652       -0.99073
