38
2sa2eda_17.log	Energy: -1117821.9126574
S         -0.44687        2.87942       -0.33521
O          0.69809        3.06787       -1.22248
O         -1.75094        2.72259       -1.00869
O         -0.22437        1.83462        0.69974
O         -0.57357        4.22598        0.57425
H         -0.68020        4.97800       -0.02385
S          0.16792       -2.26046       -0.71338
O         -1.02363       -1.83956       -1.48077
O          1.43001       -1.74775       -1.28598
O          0.04763       -2.05496        0.73348
O          0.23739       -3.87762       -0.86177
H          0.29622       -4.09143       -1.80297
H          2.80186        0.62013        2.09268
H          1.96986       -0.88775        1.63057
H          4.44564       -1.25709        1.81058
H          3.85219       -1.51516        0.16570
H          5.36859        0.81346        1.08933
H          5.60396       -0.10828       -0.24268
H          1.25640        1.07934        0.35123
H          2.82062        1.16947       -0.28848
C          2.68896       -0.13260        1.30759
C          4.02800       -0.75181        0.92996
N          2.12112        0.54166        0.11635
N          4.89582        0.28225        0.36631
H          1.87314       -0.18086       -0.58882
H         -4.25775        0.31237        0.81430
H         -4.27222       -0.57709       -0.73218
H         -4.47634       -2.07992        1.31017
H         -3.10014       -2.47141        0.27589
H         -2.95533       -1.85332        2.95840
H         -1.67786       -1.86281        1.90969
H         -2.42863        1.10362       -0.57690
H         -1.85220        0.28334        0.72501
C         -3.72387       -0.41449        0.19837
C         -3.50230       -1.71953        0.96583
N         -2.40386        0.16525       -0.13514
N         -2.60252       -1.47953        2.08877
H         -1.86809       -0.48432       -0.74699
