38
2sa2eda_175.log	Energy: -1117815.7606299
S          1.54987       -0.41215       -1.41714
O          1.57359       -0.89271       -0.00842
O          0.92740        0.93903       -1.50323
O          2.89555       -0.40483       -2.01203
O          0.66087       -1.42319       -2.23876
H         -0.18086       -1.57188       -1.70797
S         -1.48879       -1.69885        0.80507
O         -1.46305       -1.52507       -0.68210
O         -1.28442       -0.36184        1.45355
O         -2.61618       -2.44882        1.31282
O         -0.18585       -2.56147        1.16770
H          0.58256       -2.09649        0.76386
H          3.49715       -0.31066        1.08011
H          4.75183        0.85508        1.58580
H          2.76801        0.51345        3.21613
H          3.11367        2.19609        2.79768
H          0.95543        0.59172        1.59165
H          0.83732        1.98090        2.45645
H          3.54549        0.89165       -0.80229
H          2.42509        1.75567        0.09372
C          3.70408        0.73415        1.30807
C          2.74946        1.24314        2.39670
N          3.43446        1.48912        0.04491
N          1.43060        1.46760        1.81593
H          3.99284        2.33476       -0.04546
H         -2.68317        1.91264       -2.12867
H         -2.68784        0.21743       -1.56541
H         -4.85039        1.35655       -0.98877
H         -3.95733        0.85202        0.44681
H         -4.22525        3.59240       -0.53442
H         -4.39430        3.01776        0.98606
H         -0.62135        1.38686       -0.95435
H         -1.58578        2.45448       -0.03310
C         -2.72051        1.26110       -1.25050
C         -3.94776        1.55036       -0.39598
N         -1.51292        1.51663       -0.43215
N         -3.86332        2.91637        0.12960
H         -1.45702        0.81622        0.36120
