38
2sa2eda_52.log	Energy: -1117822.8207389
S         -2.99680        0.54472       -0.17717
O         -2.49309        1.52716       -1.16324
O         -3.40657       -0.73418       -0.75355
O         -2.10110        0.43118        0.99660
O         -4.32831        1.21726        0.47627
H         -5.02169        1.21247       -0.19733
S          2.55014       -0.59060       -0.23272
O          2.95859       -1.95320       -0.55764
O          1.87363        0.11676       -1.34487
O          1.82204       -0.43064        1.04407
O          3.92102        0.25395        0.05732
H          4.58142       -0.03203       -0.58803
H         -0.46680        3.13950        1.04701
H          0.25073        1.53515        1.28523
H          1.84834        3.34748        1.97772
H          2.47972        2.37921        0.64789
H          1.41188        5.09459        0.42684
H          2.79094        4.47200       -0.19524
H         -0.85463        1.95088       -0.92776
H          0.44341        3.00919       -1.22758
C          0.33808        2.46954        0.73436
C          1.70918        3.10739        0.91632
N          0.14181        2.17751       -0.70881
N          1.82448        4.26155        0.02103
H          0.75340        1.38241       -0.99837
H         -1.68134       -2.50775       -0.61703
H         -0.17639       -1.68153       -1.04919
H          0.02317       -4.17928       -1.35318
H          1.18354       -3.54040       -0.18784
H         -1.25262       -5.04040        0.45870
H          0.27103       -5.26198        1.01345
H         -1.26510       -1.05860        1.13281
H         -0.73387       -2.60113        1.66846
C         -0.62632       -2.39660       -0.35726
C          0.11917       -3.72626       -0.35885
N         -0.56800       -1.82600        1.01668
N         -0.40085       -4.55988        0.72890
H          0.36902       -1.40890        1.18996
