28
2sa2ma_63.log	Energy: -999012.5356637
S         -2.49691        0.02682       -0.25899
O         -3.81643        0.28495       -0.77116
O         -1.32655        0.49217       -1.00068
O         -2.34086        0.77588        1.16341
O         -2.36694       -1.46592        0.08927
H         -3.13027        0.60191        1.69622
H         -1.36747       -1.80612        0.25662
S          1.16038       -1.57279        0.24607
O          2.37049       -2.36198        0.18646
O         -0.09963       -2.35049        0.41306
O          1.20244       -0.42104        1.18653
O          1.05467       -0.89268       -1.23131
H          2.36849        0.63966        0.71846
H          0.19601       -0.42437       -1.29192
N          0.63096        2.80004       -0.43169
H          0.60560        3.68021       -0.93745
C          0.09402        2.96974        0.92956
H         -0.92088        3.37928        0.94443
H          0.07057        1.99203        1.41651
H          0.74821        3.63575        1.50060
H          0.02218        2.15418       -0.93311
N          2.90981        1.40471        0.23127
H          2.13256        2.04162       -0.14908
C          3.76083        0.84661       -0.84649
H          4.28153        1.65690       -1.35783
H          4.47614        0.14347       -0.42046
H          3.11251        0.31102       -1.53895
H          3.45738        1.91146        0.92264
