38
2sa2eda_205.log	Energy: -1117810.1964721
S          0.22967       -0.86528        0.94441
O          0.67967       -0.30838       -0.37654
O          0.08257        0.14783        1.98103
O         -1.00094       -1.68863        0.74764
O          1.38743       -1.84130        1.38248
H          1.99237       -2.07324        0.57881
S         -3.49645       -0.21753       -0.48383
O         -2.71056        1.01178       -0.47032
O         -4.83604       -0.18818       -0.99209
O         -2.68632       -1.32545       -1.28354
O         -3.53494       -0.80311        0.98872
H         -1.87749       -1.55941       -0.75714
H         -2.61633       -1.05662        1.25666
H         -0.47660        3.98036        0.28391
H         -0.63422        2.48705        1.25622
H          1.59580        3.75068        1.57283
H          1.70449        2.03979        1.18433
H          2.58880        4.22119       -0.44473
H          2.94902        2.60609       -0.53273
H         -1.23866        2.10445       -1.04875
H          0.33123        2.62748       -1.50657
C         -0.07173        2.98103        0.46324
C          1.42533        3.01582        0.77865
N         -0.25299        2.19533       -0.78450
N          2.19668        3.28853       -0.43491
H          0.09861        1.21305       -0.64742
H          3.76795       -0.25855       -2.08631
H          5.28665       -0.06928       -1.22778
H          4.87045       -2.40834       -1.52854
H          4.75622       -2.04163        0.19967
H          2.35643       -2.19124       -1.49016
H          2.95691       -3.47622       -0.67874
H          2.59100        0.23525       -0.11095
H          3.96653        0.36548        0.77227
C          4.24796       -0.39668       -1.10905
C          4.26798       -1.89023       -0.76970
N          3.57854        0.48179       -0.15942
N          2.91137       -2.46100       -0.68004
