28
2sa2ma_46.log	Energy: -999014.1864968
S          0.60604       -0.28172       -0.80443
O         -0.53900       -0.44427       -1.72469
O          1.91331       -0.17081       -1.44297
O          0.41374        1.17377       -0.10748
O          0.57704       -1.26541        0.30800
H         -0.51642        1.25986        0.20063
H          2.09798       -1.31181        0.98849
S         -3.26640        0.21679        0.29139
O         -4.66191        0.56260        0.34376
O         -2.24276        1.20688        0.57748
O         -2.98110       -0.94660        1.36872
O         -2.99195       -0.47779       -1.07537
H         -3.70429       -1.58910        1.33475
H         -1.99414       -0.49992       -1.31033
N          3.24437        1.58115        0.96583
H          2.26459        1.74184        0.72520
C          4.08777        1.93681       -0.18739
H          4.01679        2.99638       -0.45681
H          5.13300        1.70419        0.03536
H          3.76335        1.34065       -1.04220
H          3.45741        2.17826        1.75932
N          3.10329       -1.15523        1.26554
H          3.23380       -0.08221        1.23240
C          4.00934       -1.82789        0.30649
H          5.04543       -1.58960        0.55009
H          3.85489       -2.90628        0.34801
H          3.75705       -1.46038       -0.68803
H          3.24120       -1.48490        2.21796
