38
2sa2eda_251.log	Energy: -1117803.8196706
S          0.18806       -1.95671        0.25481
O         -0.73094       -3.00677       -0.14820
O          0.23614       -0.83134       -0.74788
O         -0.02389       -1.41353        1.61566
O          1.64299       -2.61381        0.24733
H         -1.44009       -0.54744        1.88230
H          2.29332       -1.93330        0.52238
S          3.24443        0.71837       -0.39272
O          4.51397        1.10392       -0.95251
O          3.14634       -0.29271        0.64347
O          2.59255        2.04883        0.27194
O          2.26220        0.38817       -1.54948
H          3.05769        2.81312       -0.09691
H          1.44133       -0.15611       -1.21902
H          0.20853        1.28288        1.76127
H         -0.41200        2.93601        1.75661
H         -1.74429        1.54422        3.23207
H         -2.74476        2.11922        1.86869
H         -2.99140       -0.25743        2.45759
H         -2.66395       -0.07381        0.84212
H         -0.10016        2.49942       -0.44676
H         -0.60088        0.96613       -0.37077
C         -0.62744        1.91409        1.43052
C         -1.90091        1.48794        2.15144
N         -0.80239        1.90374       -0.02160
N         -2.27387        0.08565        1.82260
H         -5.17378        0.49435       -1.53896
H         -4.15615        1.47270       -2.59951
H         -3.42672       -0.81788       -2.69546
H         -2.16077        0.16261       -1.95897
H         -4.02610       -1.51198       -0.44678
H         -2.43959       -1.81641       -0.69165
H         -2.89943        2.07363       -0.53267
H         -4.48419        2.52473       -0.43985
C         -4.16269        0.90728       -1.65446
C         -3.16667       -0.23800       -1.79919
N         -3.86082        1.72575       -0.48185
N         -3.12366       -1.06530       -0.58938
