38
2sa2eda_213.log	Energy: -1117805.8290313
S         -3.66525       -1.06914       -0.26546
O         -4.82048       -1.87139       -0.56866
O         -3.33757        0.07334       -1.10612
O         -3.85071       -0.39401        1.19557
O         -2.44902       -2.00375       -0.07485
H         -4.13317       -1.07542        1.82256
H         -1.57231       -1.48362        0.19231
S          0.90196       -0.65034        0.17909
O          1.38072       -1.94135       -0.29417
O         -0.52465       -0.64802        0.65259
O          1.69314       -0.24478        1.48214
O          1.08985        0.46201       -0.79890
H          2.71123       -0.46115        1.37864
H         -0.30537        1.32238       -0.92152
H          5.54790       -2.06529        0.16642
H          3.80545       -2.39695       -0.01898
H          4.68351       -1.30247       -2.03432
H          3.49476       -0.27877       -1.22736
H          6.39310        0.12700       -1.20498
H          5.20617        1.19091       -1.56716
H          4.48561       -1.31850        2.13210
H          4.80160        0.03577        1.25016
C          4.55171       -1.60627        0.08690
C          4.50075       -0.69803       -1.13542
N          4.23552       -0.81252        1.28792
N          5.44760        0.40983       -0.96943
H         -2.29227        2.82317        0.69929
H         -1.17595        1.54718        1.24603
H         -0.25643        3.82756        1.77662
H          0.76730        2.94770        0.63543
H         -1.02189        5.16825       -0.02532
H          0.53652        4.93516       -0.46256
H         -1.99110        1.22725       -1.02435
H         -1.18755        2.66092       -1.46202
C         -1.29619        2.39178        0.56659
C         -0.20452        3.43681        0.75256
N         -1.20561        1.86579       -0.81849
N         -0.34110        4.46242       -0.28481
