40
2sa2tma_28.log	Energy: -1097646.6668455
S          1.11388        0.54132       -0.69214
O          2.02720        1.65465       -0.92745
O         -0.05416        0.47096       -1.59124
O          1.82517       -0.77303       -0.61462
O          0.55150        0.81227        0.79150
H          3.22328       -0.51632       -0.05010
H         -0.18242        0.17975        0.96700
S         -2.27551       -1.65870        0.09194
O         -3.67123       -1.60727        0.45533
O         -1.24653       -1.21835        1.01558
O         -1.90710       -3.20524       -0.18051
O         -2.08973       -1.02073       -1.31295
H         -2.67962       -3.63967       -0.56866
H         -1.25794       -0.42746       -1.38614
N         -2.67810        1.69877        0.30307
C         -3.93824        1.62313       -0.41567
H         -3.74379        1.52526       -1.48762
H         -4.49705        0.74195       -0.09097
H         -4.56526        2.52245       -0.25454
C         -2.89552        1.73669        1.73724
H         -3.44066        0.84198        2.05173
H         -1.93188        1.75258        2.25590
H         -3.47174        2.62865        2.05514
C         -1.89464        2.83765       -0.14370
H         -0.93659        2.85810        0.38138
H         -1.68758        2.74343       -1.21292
H         -2.41680        3.79901        0.03314
N          4.19783       -0.29151        0.35272
C          3.98489        0.67888        1.45664
H          3.52620        1.57495        1.03851
H          3.30230        0.23770        2.18349
H          4.94513        0.90934        1.92439
C          4.77228       -1.56590        0.83587
H          4.11491       -1.97819        1.60199
H          4.83461       -2.26569        0.00199
H          5.76689       -1.38785        1.25183
C          4.98409        0.30477       -0.75448
H          5.08202       -0.43381       -1.55073
H          4.43473        1.16967       -1.12769
H          5.97104        0.59401       -0.38489
