38
2sa2eda_264.log	Energy: -1117804.2655977
S          2.36269       -1.19393        0.42173
O          3.75146       -1.15544        0.86030
O          1.36347       -1.02776        1.49417
O          2.11923       -0.17415       -0.67841
O          2.11772       -2.59439       -0.26942
H          2.93221        0.88368       -0.45941
H          1.17715       -2.62331       -0.60030
S         -1.39491       -1.46208       -0.51849
O         -2.82795       -1.84111       -0.66652
O         -0.45606       -2.47054       -1.03005
O         -1.16334       -0.09033       -1.00202
O         -1.22235       -1.42746        1.08227
H         -3.38169        1.17552       -0.91464
H         -0.26066       -1.28745        1.29672
H         -2.20039        0.61991        1.46623
H         -3.10001        1.80871        2.41329
H         -4.55733       -0.04345        1.43517
H         -5.05334        1.59544        0.93032
H         -3.60262       -0.49498       -0.63861
H         -4.91320        0.50225       -1.08936
H         -2.68352        3.37750        0.75675
H         -1.44945        2.37462        0.29997
C         -2.93398        1.42630        1.39942
C         -4.25723        0.84764        0.88095
N         -2.45640        2.43622        0.46099
N         -4.05479        0.47904       -0.54612
H          2.11186        3.07390       -1.89022
H          1.29564        4.22758       -0.83886
H          3.24522        3.82374        0.36829
H          2.13001        2.65456        1.11257
H          4.16336        2.05156       -0.94474
H          4.12817        1.50149        0.61016
H         -0.18441        2.44957       -1.56018
H          0.65211        1.33962       -0.73962
C          1.60819        3.18056       -0.91235
C          2.64009        2.93196        0.18715
N          0.43040        2.33730       -0.75991
N          3.54746        1.80693       -0.17197
