38
2sa2eda_279.log	Energy: -1117798.2952530
S         -3.37473        0.49155       -0.06408
O         -4.64830        1.09445       -0.35253
O         -2.24807        0.66015       -0.96502
O         -2.82767        1.08977        1.33421
O         -3.60439       -1.01187        0.25362
H         -3.56051        1.12893        1.96561
H         -2.72288       -1.54700        0.25528
S         -0.10046       -1.93784       -0.11031
O         -1.48181       -2.36114        0.21037
O          0.83557       -3.02084       -0.37155
O         -0.17972       -1.12526       -1.49762
O          0.41913       -0.96300        0.89665
H         -0.88438       -0.44626       -1.42469
H          1.99862       -1.21350        1.12068
H          1.08183        4.29466       -0.55246
H          2.01678        3.34490       -1.71866
H         -0.17435        2.28796       -1.23019
H          1.16557        1.25014       -0.75958
H         -0.62764        2.64757        1.02101
H         -0.03012        1.13495        1.09688
H          3.27985        4.05529        0.30314
H          2.31394        3.04541        1.16712
C          1.62553        3.34749       -0.69518
C          0.65288        2.18545       -0.51509
N          2.73605        3.20009        0.25126
N          0.21088        2.09647        0.87508
H          4.65532       -2.09675        0.07482
H          3.04093       -2.34800       -0.66253
H          4.37845       -0.39464       -1.69480
H          2.79609        0.04930       -1.06595
H          5.35375        0.79269        0.05624
H          3.88849        1.58245        0.13142
H          3.14929       -2.18916        1.86765
H          3.50397       -0.55406        1.57672
C          3.67052       -1.65603       -0.10246
C          3.79607       -0.28511       -0.77336
N          3.03815       -1.41045        1.22354
N          4.35667        0.66628        0.18071
