38
2sa2eda_87.log	Energy: -1117824.5547359
S         -0.30468       -2.02280       -0.74162
O         -1.38135       -1.07016       -1.18538
O         -0.00027       -1.75302        0.69343
O         -0.53269       -3.40741       -1.07641
O          1.00442       -1.58221       -1.57441
H          1.08859       -0.59616       -1.57675
S          0.30506        2.02241       -0.74189
O          1.38192        1.06985       -1.18538
O          0.00032        1.75251        0.69308
O          0.53310        3.40707       -1.07646
O         -1.00381        1.58190       -1.57494
H         -1.08762        0.59584       -1.57831
H         -3.53117        1.89311        1.40360
H         -3.23842        1.52669       -0.30679
H         -5.53692        0.77324        0.38546
H         -4.52497       -0.59370       -0.08648
H         -5.27419        0.11934        2.64515
H         -5.25817       -1.35007        1.92509
H         -1.38508        0.86062        1.12488
H         -2.45207       -0.23998        1.90626
C         -3.43095        1.08608        0.67291
C         -4.65806        0.18263        0.67388
N         -2.24903        0.27760        1.04790
N         -4.77425       -0.46257        1.98201
H         -2.02417       -0.40745        0.29465
H          3.53056       -1.89242        1.40582
H          3.23671       -1.52750       -0.30478
H          5.53595       -0.77381        0.38580
H          4.52398        0.59265       -0.08742
H          5.27563       -0.11652        2.64438
H          5.25660        1.35208        1.92273
H          1.38432       -0.85952        1.12622
H          2.45194        0.24039        1.90790
C          3.43006       -1.08611        0.67439
C          4.65726       -0.18278        0.67383
N          2.24853       -0.27697        1.04951
N          4.77407        0.46393        1.98120
H          2.02433        0.40831        0.29634
