38
2sa2eda_170.log	Energy: -1117817.2711770
S          0.57312       -1.42695       -1.14745
O          1.13180       -0.15085       -1.93433
O          0.35451       -0.99219        0.25774
O         -0.68543       -1.84444       -1.78876
O          1.69445       -2.38476       -1.24488
H          2.69443       -1.78309        0.00078
S         -0.91388        2.41595       -0.11926
O         -0.69560        1.80181        1.19186
O         -2.25950        2.17049       -0.67905
O         -0.82852        4.00985        0.18532
O          0.16179        2.16044       -1.10595
H         -0.94097        4.47895       -0.65267
H          0.64146        0.67830       -1.67806
H         -3.86720       -0.91464        1.46408
H         -4.25863       -1.49942       -0.17745
H         -3.63041       -3.36787        1.33049
H         -2.49590       -3.21855       -0.01920
H         -1.62655       -3.41753        2.41995
H         -0.90719       -2.29169        1.46583
H         -2.75415        0.45324       -0.27041
H         -1.66545       -0.33170        0.66945
C         -3.46691       -1.39137        0.56754
C         -2.84094       -2.73890        0.90905
N         -2.43277       -0.49347        0.00081
N         -1.78699       -2.56341        1.90131
H         -1.97408       -0.93356       -0.82112
H          4.74131       -0.00295        1.20412
H          4.27523       -0.13196       -0.51212
H          3.46128        2.00619        0.73271
H          2.21766        1.11112       -0.12782
H          2.46054        1.37801        2.71586
H          1.14850        1.02428        1.78404
H          3.79475       -2.06269        1.23880
H          2.46129       -1.05895        1.52324
C          3.90050       -0.08859        0.51124
C          2.90180        1.06487        0.71892
N          3.18665       -1.35868        0.82995
N          2.13618        0.81866        1.93663
