38
2sa2eda_69.log	Energy: -1117821.8282072
S         -2.56188       -1.39672        0.06330
O         -1.41904       -0.70115        0.73261
O         -3.64724       -0.49714       -0.32386
O         -2.09500       -2.32664       -0.96818
O         -3.12794       -2.30089        1.29732
H         -3.94283       -2.72841        1.00059
S          2.39616        1.33743        0.30610
O          3.30016        0.32621        0.86493
O          1.44681        0.82286       -0.69673
O          1.74244        2.18953        1.32482
O          3.32410        2.34565       -0.58020
H          3.97995        2.74123        0.00963
H          2.03577       -1.74470        1.22107
H          1.17416       -3.29491        1.04731
H          3.63422       -3.45214        0.53367
H          2.62882       -3.93039       -0.84008
H          3.82120       -1.25334       -0.56334
H          4.21418       -2.40090       -1.68896
H          0.00921       -1.38660        0.06543
H          1.30026       -1.11662       -0.95104
C          1.72228       -2.51601        0.51419
C          2.93246       -3.07430       -0.22510
N          0.79402       -1.85432       -0.43591
N          3.47170       -2.04551       -1.10031
H          0.36112       -2.50303       -1.09459
H         -0.98496        3.78604       -0.44534
H         -0.32532        2.35393       -1.27355
H         -2.71308        3.05697       -2.00715
H         -2.53592        1.37153       -1.52386
H         -4.17417        3.28864       -0.27670
H         -4.00936        1.67838        0.04203
H         -1.08408        1.01441        0.61694
H         -0.00173        2.20785        1.08799
C         -1.11801        2.71482       -0.61697
C         -2.51481        2.40062       -1.15344
N         -0.95244        2.04304        0.69657
N         -3.50764        2.55197       -0.08868
H         -1.70125        2.37623        1.31022
