28
2sa2ma_17.log	Energy: -999030.5051127
S          1.91295       -0.48862        0.35197
O          0.99358       -0.24443       -0.78115
O          3.10033        0.37705        0.33250
O          1.12912        0.05510        1.66468
O          2.15014       -1.93292        0.55795
H          0.62394       -2.62599        0.04357
S         -2.04756        0.47360        0.17326
O         -2.42198       -0.10198       -1.11493
O         -1.28476        1.72642        0.16848
O         -3.42978        0.92779        0.89861
O         -1.45243       -0.55657        1.08898
H         -4.10462        0.26941        0.68711
H          0.17127       -0.17310        1.59306
N          1.30446        2.55402       -0.16308
H          2.08752        1.92733        0.11667
H          0.40490        2.08139        0.08278
C          1.33173        2.78698       -1.62760
H          0.47413        3.39872       -1.90523
H          2.26407        3.28029       -1.90102
H          1.26279        1.80889       -2.10143
H          1.36221        3.41934        0.36938
N         -0.38688       -2.76319       -0.20107
H         -0.71739       -3.62227        0.23278
C         -0.59293       -2.76284       -1.67164
H         -1.66057       -2.80441       -1.88175
H         -0.18037       -1.82933       -2.04896
H         -0.07514       -3.61816       -2.10573
H         -0.88879       -1.95606        0.23858
