38
2sa2eda_228.log	Energy: -1117806.8597595
S          1.17005       -1.99326        0.60675
O          0.26446       -1.17199        1.46514
O          0.45613       -2.99466       -0.18046
O          2.13540       -1.16167       -0.12966
O          2.12950       -2.78020        1.64979
H          1.59177       -3.42802        2.12547
S         -2.59999        0.49898        0.49165
O         -3.69487        0.34437       -0.43701
O         -1.44619        1.31374        0.15756
O         -3.17997        1.19566        1.82644
O         -2.17294       -0.90638        0.99077
H         -4.06572        0.84498        1.99697
H         -1.15565       -1.00415        1.17665
H         -0.24035        1.00999       -3.45496
H          1.41854        0.38035       -3.57149
H         -0.31450       -1.41296       -3.99554
H          0.73192       -1.77781       -2.62070
H         -2.07806       -1.06834       -2.45848
H         -1.14813       -2.04941       -1.49739
H          1.10071        1.75798       -1.51537
H         -0.15556        0.71945       -1.09547
C          0.48359        0.32228       -3.00910
C         -0.06044       -1.10919       -2.97130
N          0.73013        0.77312       -1.62309
N         -1.16791       -1.18848       -2.03245
H          1.38360        0.13128       -1.13833
H          2.00497        4.17742        1.05152
H          0.38970        3.56935        0.63611
H          1.59214        2.18152        2.35936
H          1.03948        1.27690        0.97479
H          3.78362        1.83995        1.67086
H          3.12796        0.55822        0.87317
H          1.72158        4.12621       -1.33272
H          2.82178        2.98469       -0.87977
C          1.46031        3.35560        0.56334
C          1.75993        2.03790        1.28406
N          1.83403        3.23756       -0.85628
N          3.10899        1.56926        0.96588
