38
2sa2eda_280.log	Energy: -1117799.2644790
S          3.52544        0.38870        0.28819
O          4.84041        0.82417        0.67364
O          2.42612        0.40978        1.24054
O          2.98946        1.33165       -0.90567
O          3.64656       -1.00871       -0.37792
H          3.71674        1.52504       -1.51425
H          2.72459       -1.44558       -0.53571
S          0.06186       -1.67407       -0.36051
O         -0.94793       -2.72253       -0.31831
O          1.42229       -2.12240       -0.73546
O         -0.37106       -0.48539       -1.14428
O          0.15904       -1.16882        1.17393
H         -2.06759       -0.51837       -1.11580
H          0.93026       -0.56863        1.26901
H         -4.81310       -1.32915       -0.24469
H         -3.37105       -2.38278       -0.32900
H         -3.62142       -1.82307        1.95189
H         -2.24137       -0.91751        1.36326
H         -4.88386        0.17415        1.98234
H         -3.42129        0.66021        2.50843
H         -3.40492       -0.73657       -2.06911
H         -3.37417        0.56838       -0.98304
C         -3.72673       -1.37339       -0.11865
C         -3.33043       -0.98914        1.29903
N         -3.11833       -0.46593       -1.13038
N         -3.91530        0.29374        1.70161
H         -1.43279        1.18184        0.55671
H         -1.51672        2.80866        1.24581
H         -1.96809        3.80274       -0.91084
H         -1.60210        2.29462       -1.75204
H         -3.76369        2.25221        0.22398
H         -4.05789        2.82357       -1.29323
H          0.75294        2.38454        0.92134
H          0.53820        1.81573       -0.58109
C         -1.21391        2.24185        0.35617
C         -2.04114        2.71180       -0.83751
N          0.18982        2.49930        0.08608
N         -3.43695        2.24245       -0.74057
