38
2sa2eda_143.log	Energy: -1117821.2279191
S          1.54088        1.64821       -0.48767
O          1.21794        0.58979       -1.46766
O          0.89994        2.93273       -0.75713
O          1.28680        1.16789        0.91247
O          3.11083        1.91567       -0.58291
H          3.58361        1.10665       -0.25403
S         -1.52896       -1.72613       -0.77956
O         -2.12054       -2.99229       -1.14267
O         -2.10290       -0.51504       -1.41183
O         -1.40206       -1.51220        0.70745
O          0.01021       -1.79610       -1.27613
H          0.09898       -1.62653        1.24541
H          0.35822       -0.88159       -1.41997
H         -2.87770        3.20423        0.85684
H         -3.45860        2.61261       -0.72355
H         -4.71457        1.65624        1.29898
H         -4.03435        0.44438        0.20775
H         -3.49643        0.64941        2.90335
H         -2.63331       -0.24402        1.81181
H         -0.97306        2.48374       -0.46700
H         -1.22961        1.47082        0.81663
C         -2.99070        2.32427        0.21962
C         -3.77885        1.22301        0.93455
N         -1.63475        1.80083       -0.06899
N         -2.97976        0.68693        2.03560
H         -1.70271        0.95959       -0.69610
H          2.70377       -2.66331        2.04055
H          1.69424       -3.13406        0.65459
H          3.80102       -2.27197       -0.18986
H          2.50242       -1.18202       -0.62960
H          3.32007        0.05807        1.52250
H          4.72331       -0.73055        1.19486
H          0.95103       -1.43269        2.66913
H          1.19064       -0.39287        1.37620
C          2.15572       -2.29068        1.17118
C          3.08803       -1.55017        0.21569
N          1.05316       -1.40068        1.65794
N          3.84068       -0.43015        0.79808
