22
2sa2a_02.log	Energy: -949710.1892612
S          2.42757       -0.00000       -0.08217
O          2.28944       -1.23587       -0.88175
O          2.28938        1.23594       -0.88164
O          1.60177       -0.00007        1.13412
O          3.94497        0.00002        0.48834
H          4.55390        0.00011       -0.26305
S         -2.42757        0.00000       -0.08218
O         -2.28942        1.23588       -0.88174
O         -2.28937       -1.23592       -0.88167
O         -1.60179        0.00005        1.13413
O         -3.94498       -0.00002        0.48829
H         -4.55390       -0.00011       -0.26312
N          0.00003       -2.26438        0.24431
H          0.86241       -2.08315       -0.31605
H         -0.00001       -3.20253        0.63317
H          0.00017       -1.55935        0.99401
H         -0.86241       -2.08302       -0.31592
N         -0.00003        2.26438        0.24434
H          0.86242        2.08306       -0.31589
H         -0.00003        3.20252        0.63322
H         -0.86240        2.08312       -0.31601
H         -0.00013        1.55933        0.99403
