22
2sa2a_21.log	Energy: -949702.6322275
S         -2.09036       -0.02993        0.00026
O         -2.26815        0.79170       -1.18267
O         -1.72060       -1.44520       -0.19079
O         -1.17207        0.62645        0.99984
O         -3.54118       -0.06092        0.70341
H         -3.55957       -0.78619        1.34316
S          1.66091       -0.95484       -0.14303
O          1.23822       -0.01362       -1.17510
O          3.04285       -1.33014       -0.04570
O          1.25370       -0.33863        1.26926
O          0.79295       -2.25825       -0.25054
H          0.30108       -0.02319        1.24944
H         -0.17696       -2.01873       -0.32247
N          0.13304        2.47051       -0.62418
H          1.09919        2.62159       -0.20817
H         -0.29704        3.31826       -0.98157
H          0.22274        1.76594       -1.36228
H         -0.47612        2.02284        0.08795
N          2.68458        2.41506        0.53729
H          3.18601        3.18655        0.96605
H          3.30247        1.99556       -0.15332
H          2.54038        1.70345        1.25218
