34
2sa2dma_04.log	Energy: -1048358.9349378
S          0.88524        2.06192       -0.29039
O         -0.50118        2.43800        0.05185
O          1.74398        1.76203        0.86247
O          0.95398        1.05437       -1.36877
O          1.56430        3.40487       -0.89381
H          1.06070        3.67541       -1.67362
S         -0.85084       -2.02598       -0.53708
O         -0.68539       -3.46324       -0.54277
O         -2.22292       -1.52439       -0.79934
O         -0.29914       -1.32564        0.67368
O          0.08023       -1.50055       -1.74707
H          1.30687       -1.16413        0.70477
H          0.22138       -0.53049       -1.66094
N         -2.58785        0.74726        0.58658
C         -3.75981        1.49272        0.08876
C         -2.63007        0.42539        2.02806
H         -2.48050       -0.14852        0.03917
H         -3.83481        2.44654        0.61345
H         -3.62990        1.67085       -0.97853
H         -4.66179        0.90176        0.25468
H         -2.64190        1.35221        2.60425
H         -3.52663       -0.16022        2.23792
H         -1.74247       -0.16228        2.26089
H         -1.73125        1.30761        0.39192
N          2.33362       -0.93397        0.81485
C          3.07601       -1.35750       -0.39277
C          2.81071       -1.54118        2.07209
H          2.33239        0.10262        0.88424
H          2.90747       -2.42208       -0.55912
H          2.69538       -0.79060       -1.24102
H          4.13948       -1.15774       -0.24951
H          2.70208       -2.62463        2.00523
H          3.85780       -1.28020        2.23418
H          2.20305       -1.16436        2.89473
