38
2sa2eda_147.log	Energy: -1117821.4721207
S         -0.60383       -1.48390        0.37819
O         -1.76957       -2.33128        0.18939
O         -0.06641       -0.87269       -0.87174
O         -0.88811       -0.36364        1.35896
O          0.53020       -2.37051        1.00762
H         -2.29025        0.40303        0.62180
H          1.40747       -1.86602        0.99318
S          3.21881       -0.30649       -0.32985
O          4.64677       -0.44328       -0.48122
O          2.63563       -0.87977        0.92511
O          2.69668        1.09625       -0.47136
O          2.57035       -1.13387       -1.54072
H          1.79512        1.36134        0.74978
H          1.59093       -1.11709       -1.43922
H         -0.61699        2.87062        1.61812
H          0.96593        3.66678        1.67605
H         -0.10913        4.13503       -0.44954
H          1.37980        3.20157       -0.68964
H         -0.47305        2.41690       -2.01907
H          0.01676        1.24183       -1.02327
H          1.46353        1.54297        2.40361
H          0.34098        0.78474        1.44229
C          0.38899        2.87811        1.18847
C          0.35198        3.15228       -0.31107
N          1.03413        1.57268        1.48171
N         -0.44752        2.15673       -1.03687
H         -3.75330        0.78899       -1.93556
H         -2.60869       -0.52101       -1.53864
H         -4.99668       -1.29109       -1.32634
H         -4.10680       -1.37938        0.19244
H         -6.16393        0.58515       -0.50148
H         -5.94900       -0.23318        0.89514
H         -2.06706        1.62868       -0.45532
H         -3.58909        1.45724        0.38858
C         -3.39463        0.12391       -1.14417
C         -4.53303       -0.68617       -0.53825
N         -2.81123        0.97947       -0.07743
N         -5.46117        0.22693        0.13623
