38
2sa2eda_235.log	Energy: -1117803.6012848
S          0.61989       -2.27569       -0.65039
O          1.30463       -2.55528        0.59936
O         -0.85031       -2.55304       -0.65523
O          0.91016       -0.93946       -1.21567
O          1.21710       -3.36564       -1.68877
H          0.66291       -3.36725       -2.48083
S         -2.66404        0.09550        0.65423
O         -3.29492        1.35591        0.32613
O         -1.47047        0.07174        1.47767
O         -3.71889       -0.79416        1.48054
O         -2.45880       -0.68558       -0.66251
H         -4.59524       -0.68775        1.08334
H         -1.75411       -1.47576       -0.61669
H          2.44963        0.87871        2.78055
H          1.97059       -0.79258        2.38449
H          4.34974       -0.53405        1.92263
H          3.44908       -0.80487        0.43212
H          4.58585        1.74945        1.30398
H          4.77222        0.97868       -0.12312
H          0.35326        0.61022        1.44576
H          1.45645        1.67116        0.72050
C          2.32882        0.15191        1.97141
C          3.63454       -0.07493        1.22567
N          1.29583        0.66857        1.04564
N          4.11077        1.16889        0.62044
H          1.25566        0.08529        0.18685
H          1.25346        3.55864       -2.24693
H          1.75127        1.91524       -1.80413
H         -0.59298        1.96256       -2.60038
H         -0.48062        1.40520       -0.94606
H         -1.49740        3.99251       -1.80840
H         -2.09638        2.94635       -0.69383
H          2.33186        3.59993       -0.10494
H          0.70785        3.83513        0.14110
C          1.09588        2.74640       -1.52165
C         -0.36062        2.28954       -1.57789
N          1.41734        3.16447       -0.15084
N         -1.24200        3.34132       -1.07449
