38
2sa2eda_78.log	Energy: -1117820.2763637
S         -2.69608        0.57899       -0.06761
O         -2.48570        1.82610       -0.79892
O         -3.03564       -0.59317       -0.87577
O         -1.60285        0.29456        0.91541
O         -3.94955        0.82824        0.94617
H         -4.71980        1.06265        0.41087
S          3.05651       -0.64651       -0.14075
O          2.48655       -1.58915       -1.10637
O          3.51502        0.63185       -0.68147
O          2.17328       -0.48585        1.05970
O          4.35421       -1.37248        0.52712
H          5.02864       -1.46018       -0.15992
H          1.87121        2.37063       -0.83404
H          0.30827        1.64495       -1.25725
H          0.30209        4.13429       -1.66343
H         -0.91744        3.61357       -0.49557
H          1.61336        4.95421        0.15125
H          0.09877        5.33038        0.64463
H          1.36138        1.07357        0.99672
H          0.85401        2.64828        1.42364
C          0.80716        2.34889       -0.58986
C          0.15820        3.72607       -0.65561
N          0.68651        1.84414        0.80626
N          0.71498        4.56124        0.41229
H         -0.26239        1.45342        0.97118
H          0.08516       -4.01844        0.72989
H         -0.78862       -3.13543        2.00826
H         -2.30710       -4.50310        0.44839
H         -2.72052       -2.78982        0.56632
H         -1.96538       -4.14729       -1.77388
H         -2.33578       -2.54362       -1.58356
H          0.83371       -1.68792        0.81049
H          0.03675       -2.06255       -0.60171
C         -0.64556       -3.23155        0.92994
C         -1.96619       -3.49341        0.19818
N         -0.08214       -1.96460        0.41397
N         -1.77337       -3.31385       -1.23647
H         -0.72928       -1.16647        0.58623
