38
2sa2eda_133.log	Energy: -1117820.2641399
S         -1.01585        1.92248       -0.54379
O         -0.83407        1.89707        0.90392
O          0.21196        1.72611       -1.34736
O         -2.13980        1.09058       -1.03822
O         -1.46429        3.45987       -0.83673
H         -1.54434        3.56643       -1.79416
S          1.12028       -1.67762       -0.78616
O          2.45938       -2.28066       -0.57504
O          0.10814       -2.63680       -1.26528
O          0.66673       -0.90624        0.38937
O          1.36138       -0.60589       -1.95317
H          2.62774       -0.41376        1.93841
H          0.84272        0.22102       -1.76517
H         -2.16225       -2.33647        1.61751
H         -1.40976       -0.73616        1.42351
H         -3.60490       -0.54518        2.63573
H         -3.62281        0.30137        1.08525
H         -4.93495       -2.25307        1.65887
H         -5.53707       -0.93127        0.90741
H         -1.43931       -2.07582       -0.65303
H         -3.14369       -1.95874       -0.59175
C         -2.27174       -1.34915        1.15987
C         -3.58688       -0.68908        1.54804
N         -2.25852       -1.52607       -0.31462
N         -4.70166       -1.48961        1.03308
H         -2.20167       -0.57558       -0.74678
H          2.27946        1.22348       -0.20258
H          3.31101        2.49314        0.44344
H          4.54251        0.28604       -0.10139
H          4.76572        0.88129        1.56482
H          3.10206       -1.39222        0.61955
H          4.09037       -1.25951        1.98609
H          2.24345        2.24496        2.48085
H          1.05596        1.52172        1.60006
C          2.88440        1.50757        0.65942
C          4.03753        0.50759        0.84005
N          2.04372        1.47658        1.85205
N          3.44984       -0.74564        1.38784
