34
2sa2dma_38.log	Energy: -1048351.3030798
S          0.42923       -1.59138       -0.40316
O          0.19983       -0.61480       -1.52246
O          0.36894       -0.82464        0.91495
O         -0.62755       -2.63348       -0.40370
O          1.79413       -2.20351       -0.52809
H          2.83485       -1.23534       -0.21310
S         -0.66850        2.27418       -0.01740
O         -1.94899        1.56343        0.09385
O         -0.65943        3.70336        0.12121
O          0.32236        1.65695        1.03633
O         -0.01265        1.90631       -1.39774
H          0.30561        0.61346        0.99197
H          0.05622        0.88789       -1.48826
N         -2.72693       -1.07954        0.22184
C         -3.94894       -1.20337       -0.59505
C         -2.92358       -1.27010        1.67462
H         -1.99026       -1.76622       -0.10032
H         -4.67148       -0.44792       -0.28255
H         -3.68508       -1.04889       -1.64114
H         -4.37106       -2.20103       -0.46492
H         -3.60429       -0.50498        2.05094
H         -3.33464       -2.26480        1.85290
H         -1.94836       -1.17912        2.15334
H         -2.32330       -0.13265        0.08134
N          3.59444       -0.48514        0.06574
C          3.62585       -0.39960        1.54445
C          3.26546        0.79881       -0.60158
H          4.48668       -0.83165       -0.28291
H          2.61231       -0.18521        1.88407
H          3.93770       -1.36403        1.94561
H          4.31465        0.38603        1.86055
H          2.35278        1.19737       -0.15882
H          4.08070        1.51100       -0.46048
H          3.09690        0.61069       -1.66170
