38
2sa2eda_127.log	Energy: -1117822.2065515
S          1.05351        1.71397        0.67270
O          0.83257        1.53742       -0.79434
O          1.59516        0.44599        1.24912
O          1.76991        2.91400        1.03900
O         -0.42833        1.86872        1.31027
H         -0.82186        0.97671        1.47257
S         -1.07386       -1.71308        0.67313
O         -0.74427       -1.36487       -0.76393
O         -1.71364       -0.52725        1.30337
O         -1.76711       -2.97015        0.82172
O          0.34657       -1.88386        1.38854
H          0.78368       -0.98867        1.45004
H          2.61472       -1.65690        0.33152
H          2.91717       -2.73491       -1.03835
H          4.98280       -1.54170       -0.24428
H          4.62345       -1.19367       -1.93773
H          3.88638        0.62376        0.26051
H          4.98757        0.90499       -0.93358
H          0.89541       -1.28441       -1.22818
H          1.86723        0.05295       -1.23883
C          2.91415       -1.69231       -0.71469
C          4.27282       -1.02967       -0.91125
N          1.86280       -0.96317       -1.47198
N          4.14272        0.40085       -0.69768
H          2.00119       -1.04530       -2.47755
H         -3.47481        1.98045       -2.22639
H         -2.87010        0.45647       -2.93497
H         -5.02540        0.17505       -1.59557
H         -3.69711       -0.82470       -1.01066
H         -5.06044        1.11529        0.46674
H         -3.69620        0.29561        0.92539
H         -1.09819        1.74695       -1.65958
H         -2.04550        1.54525       -0.32560
C         -3.08202        0.98593       -2.00358
C         -4.04933        0.20922       -1.10320
N         -1.81997        1.15017       -1.24935
N         -4.11993        0.86357        0.19779
H         -1.36438        0.22373       -1.07403
