38
2sa2eda_224.log	Energy: -1117805.4312969
S         -1.12068       -0.28285        0.60310
O         -0.44595        0.63083        1.52511
O         -1.27154        0.25844       -0.77532
O         -0.28513       -1.62441        0.48461
O         -2.43695       -0.77904        1.11345
H          0.59899       -1.47029        0.03269
H         -3.25612       -1.10398       -0.16786
S          3.28221       -1.00559       -0.21473
O          4.19765       -0.23364       -1.05009
O          1.94722       -1.22947       -0.80444
O          3.87598       -2.51495       -0.10550
O          3.20394       -0.50891        1.18401
H          4.79609       -2.45312        0.18386
H          2.38260        0.92099        1.34102
H          2.63487        3.63426        0.24035
H          3.58150        2.15278       -0.10655
H          2.11988        2.68955       -2.02676
H          1.59350        1.18990       -1.28007
H          0.13200        3.65920       -1.35536
H         -0.39820        2.12278       -1.00781
H          2.25404        2.39216        2.13029
H          0.97792        1.84102        1.21090
C          2.58056        2.55905        0.05586
C          1.65626        2.27203       -1.12571
N          2.01153        1.90486        1.27159
N          0.33201        2.80993       -0.84520
H         -5.94041       -1.30279        0.02426
H         -6.67604        0.21477       -0.49142
H         -5.24057       -0.32758       -2.28890
H         -4.31635        0.87156       -1.34830
H         -3.87310       -2.03575       -1.46805
H         -2.78192       -0.77296       -1.67796
H         -5.91550        0.49362        1.74106
H         -4.35563        0.16146        1.33495
C         -5.73189       -0.23350       -0.16664
C         -4.75453       -0.12798       -1.33163
N         -5.24518        0.50994        0.98224
N         -3.62496       -1.09200       -1.18009
