34
2sa2dma_65.log	Energy: -1048340.3868184
S         -1.93756       -0.51116       -0.70033
O         -3.22735       -1.07394       -1.15123
O         -0.78036       -0.86622       -1.53086
O         -2.04974        0.95341       -0.44528
O         -1.73522       -1.19694        0.73715
H         -3.64317        1.20120        0.00880
H         -0.80673       -1.04696        1.06247
S          1.93755       -0.51147        0.70014
O          3.22726       -1.07448        1.15093
O          0.78027       -0.86657        1.53053
O          2.04991        0.95316        0.44545
O          1.73517       -1.19687       -0.73752
H          3.64321        1.20078       -0.00795
H          0.80668       -1.04679       -1.06278
N          4.61760        0.82146       -0.16790
C          5.66063        1.73271        0.33259
C          4.74351        0.42370       -1.58726
H          4.52937       -0.03552        0.41764
H          5.63200        2.66243       -0.23773
H          5.46722        1.94170        1.38474
H          6.63987        1.26360        0.22288
H          4.69157        1.31484       -2.21450
H          5.69656       -0.08554       -1.73873
H          3.91566       -0.24691       -1.82363
N         -4.61743        0.82154        0.16834
C         -5.66058        1.73268       -0.33210
C         -4.74366        0.42310        1.58746
H         -4.52872       -0.03518       -0.41758
H         -5.63234        2.66222        0.23853
H         -5.46698        1.94206       -1.38415
H         -6.63971        1.26327       -0.22278
H         -4.69225        1.31396        2.21515
H         -5.69658       -0.08654        1.73839
H         -3.91566       -0.24735        1.82380
