38
2sa2eda_99.log	Energy: -1117821.2323179
S         -0.42362        2.16479       -0.45048
O         -1.54155        1.68168        0.37682
O          0.77021        2.59091        0.28169
O         -0.13322        1.27340       -1.59899
O         -1.05658        3.51143       -1.11690
H         -0.37849        3.91311       -1.67625
S          0.66286       -2.03624       -0.70996
O          1.69131       -3.05304       -0.54285
O         -0.60406       -2.46464       -1.33521
O          0.37361       -1.28179        0.56104
O          1.33726       -0.94766       -1.67894
H          1.72497       -1.02271        1.30977
H          0.77999       -0.12513       -1.68991
H         -3.12034       -2.33735        0.90563
H         -1.88789       -1.24396        1.56917
H         -4.13907       -0.81286        2.62722
H         -3.55703        0.58576        1.71386
H         -5.67895       -1.24599        0.87859
H         -5.64758        0.39060        0.83833
H         -1.86480       -1.40384       -0.86080
H         -3.41559       -0.67414       -0.85609
C         -2.81820       -1.29086        1.00250
C         -3.92294       -0.44081        1.61730
N         -2.52885       -0.77500       -0.35560
N         -5.08213       -0.44115        0.72250
H         -2.09718        0.16935       -0.25767
H          4.69715       -0.71584        1.13568
H          3.57104       -1.28952       -0.13204
H          4.28344        1.18098       -0.38601
H          2.54263        0.91782       -0.30797
H          4.14541        2.23149        1.67860
H          2.52884        2.32884        1.34183
H          2.92071       -1.72702        2.27676
H          2.68331       -0.04724        2.34498
C          3.70571       -0.58771        0.69211
C          3.46676        0.86420        0.27110
N          2.69656       -0.89027        1.74498
N          3.31411        1.69496        1.46553
