28
2sa2ma_39.log	Energy: -999015.5982111
S          1.23570       -1.71930        0.01987
O          1.58279       -1.05606        1.28416
O         -0.16931       -2.21395       -0.02670
O          1.61725       -0.98884       -1.19146
O          2.13022       -3.06575        0.07981
H          1.91542       -3.60603       -0.69292
S         -2.50130        0.32205       -0.18112
O         -3.72972        0.83405       -0.73093
O         -1.32456        1.16891       -0.09053
O         -2.74934       -0.11714        1.35499
O         -2.17576       -1.01508       -0.89411
H         -3.56866       -0.62988        1.41059
H         -1.30209       -1.46504       -0.55327
N          0.99465        1.62843        1.35804
H          1.21268        0.61241        1.43883
H          1.20974        1.88047        0.32554
C          1.75677        2.44137        2.32058
H          1.53132        3.49738        2.16790
H          1.50196        2.15527        3.34142
H          2.82090        2.27139        2.15619
H         -0.01805        1.71984        1.45200
N          1.41440        1.97897       -1.32154
H          1.44429        0.97376       -1.50865
C          2.57334        2.64697       -1.91907
H          2.64033        2.51327       -3.00522
H          2.53464        3.71851       -1.70487
H          3.48578        2.24390       -1.47259
H          0.54474        2.31964       -1.72140
