38
2sa2eda_261.log	Energy: -1117802.4529613
S         -1.52598       -2.00095       -0.51577
O         -2.42756       -0.85878       -0.18478
O         -0.38405       -1.59192       -1.34489
O         -1.21500       -2.81918        0.65321
O         -2.37226       -2.94215       -1.53275
H         -3.05994       -3.38839       -1.02028
S         -1.15173        2.31249       -0.53919
O         -1.13068        3.56649       -1.25100
O          0.07749        1.59301       -0.27711
O         -1.75277        2.57098        0.94272
O         -2.21706        1.40446       -1.20369
H         -2.52107        3.15476        0.86864
H         -2.26316        0.44342       -0.79979
H          2.29928       -0.07202       -2.45524
H          2.11505        1.30190       -1.35354
H          4.50390        1.04252       -2.06543
H          4.32699        0.79232       -0.32640
H          4.66448       -1.34282       -2.30649
H          5.55426       -1.04927       -0.96592
H          1.02073       -0.84968       -0.68854
H          2.56525       -1.43251       -0.42679
C          2.57383        0.32087       -1.47215
C          4.08744        0.36661       -1.30654
N          1.99707       -0.58060       -0.44974
N          4.62069       -0.99427       -1.35437
H          2.02864       -0.14779        0.52143
H          1.04343        1.07469        3.85226
H          0.70440        1.81089        2.26867
H         -1.10702        0.25657        2.96667
H         -0.34724       -0.20880        1.45996
H         -0.05946       -1.57489        4.00485
H         -0.26930       -2.17292        2.48944
H          2.98419        0.91755        2.46804
H          2.33139       -0.58293        2.65596
C          0.94525        0.87320        2.77486
C         -0.17549       -0.13304        2.53556
N          2.19555        0.32943        2.21803
N          0.20348       -1.45546        3.03290
