38
2sa2eda_180.log	Energy: -1117814.8467314
S          0.78642        0.29304        1.26443
O         -0.61716        0.55236        1.63172
O          1.81273        0.61726        2.25020
O          0.94445       -1.26321        0.99989
O          1.09829        0.95719       -0.06441
H          0.21009       -1.56471        0.35898
H          2.70291        1.02896       -0.06257
S         -2.36645       -1.78465       -0.22569
O         -3.06456       -3.01675       -0.50174
O         -0.92699       -1.74678       -0.65385
O         -3.03209       -0.54188       -0.71967
O         -2.33563       -1.65959        1.37965
H         -1.95219        0.47822       -1.18154
H         -1.84200       -0.84842        1.62434
H         -1.32762        3.25813       -2.11544
H         -2.81871        2.33205       -2.46229
H         -3.18730        3.86269       -0.60184
H         -3.30547        2.19086       -0.04151
H         -1.84967        3.96094        1.22140
H         -1.25322        2.44798        1.06665
H         -0.94355        0.86584       -2.45888
H         -0.46299        1.30059       -0.94623
C         -2.02242        2.50621       -1.73405
C         -2.60461        2.95865       -0.40015
N         -1.28809        1.22486       -1.57110
N         -1.54095        3.27402        0.54488
H          5.12275       -0.63313        0.49973
H          3.44587       -0.95466        1.02392
H          4.01621       -2.25739       -1.05154
H          2.70090       -1.11373       -1.30962
H          5.44990       -0.81972       -2.26649
H          4.04967       -0.55918       -3.06188
H          3.96200        1.42247        0.96136
H          4.26365        1.27623       -0.70232
C          4.06709       -0.54037        0.22996
C          3.77456       -1.19016       -1.11513
N          3.75046        0.91108        0.10588
N          4.50418       -0.46755       -2.16137
