38
2sa2eda_134.log	Energy: -1117821.2966439
S         -1.63267        1.06664       -1.19527
O         -1.66216        1.48447        0.23855
O         -1.19845       -0.36902       -1.28033
O         -2.82511        1.36119       -1.95605
O         -0.44304        1.91351       -1.86369
H          0.33070        1.91743       -1.24546
S          1.63317        1.06649        1.19548
O          1.66252        1.48418       -0.23846
O          1.19930       -0.36926        1.28064
O          2.82545        1.36142        1.95634
O          0.44327        1.91320        1.86346
H         -0.32991        1.91704        1.24455
H         -1.31960       -2.13961        0.25558
H         -1.29618       -2.90153        1.86821
H         -3.46707       -3.24762        0.66188
H         -3.68993       -2.37858        2.18148
H         -3.61325       -1.05252       -0.44694
H         -4.85426       -1.08069        0.63533
H         -0.36095       -0.62859        1.72571
H         -1.85794       -0.04112        1.26965
C         -1.75666       -2.12347        1.25529
C         -3.27063       -2.29178        1.17176
N         -1.39828       -0.79847        1.81763
N         -3.84828       -1.12124        0.53885
H         -1.67994       -0.69773        2.79102
H          1.31750       -2.13931       -0.25762
H          1.29530       -2.90034       -1.87065
H          3.46458       -3.24903       -0.66252
H          3.68981       -2.37860       -2.18098
H          3.60987       -1.05432        0.44823
H          4.85330       -1.08330       -0.63142
H          0.36173       -0.62675       -1.72734
H          1.85874       -0.04065       -1.27006
C          1.75569       -2.12296       -1.25683
C          3.26946       -2.29250       -1.17164
N          1.39897       -0.79741       -1.81879
N          3.84712       -1.12304       -0.53699
H          1.68137       -0.69643       -2.79191
