38
2sa2eda_27.log	Energy: -1117825.0345108
S          0.39418        2.17163       -0.14095
O         -0.43673        2.57334        0.99655
O          1.65399        1.48900        0.20897
O         -0.34967        1.46877       -1.21477
O          0.82782        3.59936       -0.78709
H          1.26560        3.42587       -1.63106
S         -0.49632       -1.99647       -0.26705
O          0.52128       -3.01634        0.04964
O         -1.77873       -2.48197       -0.75987
O         -0.62544       -1.01187        0.85326
O          0.22025       -1.15315       -1.45232
H          1.89339       -0.25698        0.71358
H         -0.06203       -0.20567       -1.41857
H         -3.91870        1.74294       -0.31178
H         -2.67132        0.75726       -1.10039
H         -4.92769       -0.38304       -1.15554
H         -3.71956       -1.31480       -0.26794
H         -5.94038        0.19415        0.89763
H         -5.38284       -1.29531        1.28002
H         -2.00075        1.63548        1.10358
H         -3.23497        0.65350        1.76733
C         -3.37199        0.79658       -0.26584
C         -4.31746       -0.39856       -0.24383
N         -2.58211        0.78766        0.98969
N         -5.10047       -0.36562        0.99512
H         -1.88657       -0.00856        0.97648
H          3.77500       -2.15021       -0.52929
H          2.80239       -0.89252       -1.31741
H          5.19388       -0.13304       -0.98346
H          4.03894        0.86773       -0.08669
H          5.81809       -1.14784        1.06674
H          5.51234        0.37763        1.57639
H          1.78041       -1.94373        0.66354
H          3.00075       -1.16270        1.58412
C          3.37808       -1.13689       -0.42423
C          4.48600       -0.12849       -0.14491
N          2.44204       -1.13796        0.72539
N          5.09601       -0.44061        1.14962
