38
2sa2eda_81.log	Energy: -1117821.7867100
S         -2.40142       -1.41621        0.11035
O         -3.41350       -0.40304        0.42386
O         -1.37156       -0.91215       -0.84395
O         -1.79803       -2.11521        1.25092
O         -3.17167       -2.61171       -0.67721
H         -3.73666       -2.21272       -1.35207
S          2.43968        1.41180       -0.02941
O          3.32461        0.32840       -0.46928
O          1.81773        2.17518       -1.13197
O          1.45838        1.01717        1.00416
O          3.37416        2.47043        0.77978
H          4.09561        2.73865        0.19467
H         -1.57572        1.31921        1.10593
H         -0.50553        2.72163        1.02239
H         -3.00254        3.21670        1.44716
H         -2.28880        4.11570        0.10030
H         -3.82260        1.63033       -0.24886
H         -4.28872        3.14844       -0.71149
H         -1.01383        0.75708       -0.91185
H         -1.60325        2.17984       -1.49859
C         -1.34371        2.22136        0.53930
C         -2.57892        3.11419        0.43900
N         -0.92543        1.79368       -0.83073
N         -3.49102        2.54668       -0.54901
H          0.05491        2.05962       -1.04967
H          2.92834       -1.57230        1.20361
H          2.06081       -2.93586        1.94909
H          3.63612       -3.55237        0.01979
H          1.97266       -4.11842       -0.19971
H          3.00482       -1.64280       -1.42209
H          2.50817       -3.02057       -2.20675
H          0.95337       -0.66530        0.97066
H          0.81238       -1.67854       -0.32601
C          2.18308       -2.35220        1.03600
C          2.60213       -3.22296       -0.15182
N          0.90779       -1.66709        0.70490
N          2.39729       -2.45830       -1.37353
H          0.04149       -2.07756        1.09169
