28
2sa2ma_61.log	Energy: -999013.7532392
S         -3.06213        0.30691        0.09958
O         -4.47116        0.57650       -0.00639
O         -2.13270        0.80254       -0.90138
O         -2.51491        0.94717        1.47321
O         -2.87798       -1.22415        0.31157
H         -3.16034        0.77931        2.17482
H         -1.91469       -1.53520        0.13838
S          0.66236       -1.14965       -0.25399
O          1.89518       -1.83261       -0.67692
O         -0.52820       -2.02546       -0.20878
O          0.83901       -0.33116        0.95806
O          0.39362       -0.10679       -1.47166
H          2.97729       -0.08962        1.45383
H         -0.50635        0.27298       -1.35737
N          3.59415       -0.12363        0.63866
H          3.23198       -0.93750        0.09826
C          5.02770       -0.20407        0.96490
H          5.59876       -0.23671        0.03686
H          5.32271        0.67459        1.53931
H          5.22958       -1.10559        1.54367
H          3.32953        0.73472        0.03820
N          2.58195        1.90757       -0.91506
H          3.14300        2.47835       -1.53967
C          1.73261        2.75421       -0.05940
H          1.07584        3.41733       -0.63270
H          1.11164        2.10354        0.56074
H          2.36343        3.36587        0.59160
H          1.97626        1.32504       -1.49526
