38
2sa2eda_90.log	Energy: -1117823.3601775
S          0.33643       -1.51860        1.01411
O          0.76838       -0.27134        1.94458
O          0.23062       -0.94742       -0.36653
O          1.40674       -2.48104        1.19208
O         -1.01402       -1.94220        1.46222
H         -2.14800       -0.95513        0.65120
S         -0.65826        2.51033        0.03095
O         -1.34234        1.90660       -1.12830
O          0.75689        2.83476       -0.22872
O         -1.38064        3.93551        0.31652
O         -0.91522        1.77471        1.28318
H         -1.10853        4.55516       -0.37391
H          0.14863        0.48357        1.79987
H          4.05245        1.25052       -0.02424
H          2.87865        0.38280        1.00069
H          4.83648       -1.08241        0.40488
H          3.30499       -1.71647       -0.18987
H          5.40111       -0.46534       -1.80492
H          4.51732       -1.80562       -2.11342
H          1.84594        1.59053       -0.87784
H          2.69988        0.52804       -1.92048
C          3.34954        0.41379        0.01696
C          4.03102       -0.90798       -0.31876
N          2.28824        0.66022       -0.99234
N          4.47823       -0.87583       -1.71425
H          1.50596       -0.03494       -0.85887
H         -2.11029       -1.60818       -2.12158
H         -3.71153       -2.25624       -2.45421
H         -4.04757       -0.08251       -1.48862
H         -4.49844       -1.26197       -0.23433
H         -1.99389        0.30804       -0.44598
H         -3.10814        0.40733        0.74108
H         -1.94824       -3.05923       -0.22564
H         -3.47312       -3.63616       -0.48217
C         -3.01716       -1.99877       -1.64713
C         -3.67094       -0.87340       -0.83423
N         -2.67106       -3.20299       -0.92427
N         -2.68576       -0.25112        0.08745
