38
2sa2eda_189.log	Energy: -1117812.0858780
S          1.84009       -1.67661        0.60038
O          2.19281       -0.87027        1.76443
O          0.41386       -2.10165        0.57805
O          2.24683       -1.10230       -0.70084
O          2.70458       -3.03303        0.79146
H          2.51496       -3.62333        0.04936
S         -2.11645       -0.72562       -1.34484
O         -3.14185       -0.86984       -2.34720
O         -1.37200        0.53280       -1.30049
O         -2.69408       -0.97532        0.10792
O         -1.14515       -1.94368       -1.47887
H         -2.97524       -0.08322        0.54178
H         -0.49937       -1.99937       -0.70294
H          1.96670        2.96416        0.63616
H          2.78020        1.38545        0.76866
H          4.07959        2.91765       -0.72564
H          3.46028        1.52037       -1.60856
H          2.42724        4.25072       -1.77705
H          2.74544        3.19024       -2.98127
H          0.37699        1.18729        0.36787
H          0.61883        1.94278       -1.15463
C          2.27868        2.07226        0.08362
C          3.16333        2.44261       -1.09966
N          1.06340        1.39553       -0.41477
N          2.39940        3.27013       -2.03324
H          1.33291        0.47566       -0.80947
H         -1.81751        1.07708        3.42347
H         -0.68030        2.34559        2.97545
H         -2.76636        3.08333        2.16676
H         -1.87428        2.52664        0.73543
H         -3.96787        0.99684        2.11066
H         -4.06978        1.69836        0.64229
H          0.31318        0.27629        2.40790
H         -0.95318       -0.20499        1.52332
C         -1.31178        1.55008        2.56639
C         -2.35411        2.19984        1.66244
N         -0.45162        0.62585        1.83311
N         -3.42368        1.25504        1.29052
