38
2sa2eda_121.log	Energy: -1117820.7445737
S          0.71770        2.41025       -0.18888
O          0.02105        2.52878        1.10051
O          2.11668        1.98394       -0.13200
O         -0.07945        1.65380       -1.19579
O          0.72811        3.94637       -0.72304
H          1.26574        3.98006       -1.52574
S         -0.46535       -1.75939       -0.81494
O          0.02749       -3.12401       -0.92410
O         -1.83474       -1.47731       -1.26388
O         -0.27693       -1.19936        0.58297
O          0.53423       -0.90092       -1.73053
H          1.06623       -1.67289        1.23511
H          0.33064        0.06476       -1.62241
H         -3.60894        0.99591        2.11634
H         -3.86302        2.05294        0.70342
H         -5.44979        0.14336        0.73233
H         -4.41169        0.08390       -0.69368
H         -4.74593       -1.99128        0.93669
H         -3.31840       -1.73985        0.16305
H         -1.48677        1.58511        1.03587
H         -1.75145       -0.04884        0.91348
C         -3.55579        1.05536        1.02751
C         -4.42200       -0.03209        0.40053
N         -2.13713        0.87372        0.64547
N         -3.97291       -1.34649        0.83702
H         -1.98910        0.92672       -0.36870
H          3.77239       -2.90143        0.90678
H          2.41499       -2.87912       -0.26259
H          4.26930       -1.12813       -0.72526
H          2.63675       -0.47896       -0.58688
H          4.79489       -0.05780        1.27089
H          3.44525        0.84268        0.94747
H          1.85481       -2.79616        2.23222
H          2.46289       -1.21557        2.11620
C          2.94959       -2.30802        0.49849
C          3.44404       -0.95521       -0.02663
N          2.01119       -2.00406        1.61513
N          3.79702       -0.09884        1.10580
