34
2sa2dma_66.log	Energy: -1048341.0730753
S         -0.62408        1.94384       -0.22839
O         -1.94215        1.47269        0.21946
O          0.39089        1.97906        0.84065
O         -0.15785        1.24954       -1.45317
O         -0.78332        3.49892       -0.62030
H         -1.44917        3.57980       -1.31750
S          2.42021       -0.64218       -0.06870
O          3.64383       -1.38383       -0.12422
O          1.24029       -1.25884        0.54292
O          2.70588        0.72275        0.66810
O          2.04536       -0.21485       -1.54080
H          1.86746        1.25856        0.75733
H          1.21982        0.34705       -1.55278
N         -1.23190       -0.83392        1.72246
C         -1.95081       -2.10876        1.92923
C         -0.91140       -0.10244        2.97073
H         -0.35247       -1.01770        1.20479
H         -2.89440       -1.90904        2.43907
H         -2.12945       -2.54404        0.94757
H         -1.33101       -2.76877        2.53731
H         -1.83958        0.12363        3.49698
H         -0.26933       -0.72903        3.59088
H         -0.39693        0.82001        2.70319
H         -1.76264       -0.21438        1.08732
N         -1.69050       -1.45759       -1.19329
C         -3.06311       -1.28318       -1.64473
C         -1.06399       -2.65999       -1.72481
H         -1.15007       -0.64392       -1.47403
H         -3.69196       -2.08383       -1.23546
H         -3.44483       -0.32619       -1.27860
H         -3.17057       -1.30744       -2.74208
H         -1.57721       -3.54737       -1.33359
H         -1.09460       -2.71917       -2.82521
H         -0.02174       -2.70147       -1.39954
