28
2sa2ma_58.log	Energy: -999013.4383549
S         -2.16385       -0.83018       -0.25757
O         -3.53732       -1.27445       -0.15530
O         -1.15379       -1.73999       -0.78299
O         -2.08994        0.47752       -1.10471
O         -1.74510       -0.37720        1.19788
H         -2.96895        1.04938       -0.92681
H         -0.75409       -0.22682        1.25420
S          1.89127       -0.43093        0.39318
O          3.20793       -0.67990        1.01676
O          0.83771       -0.04159        1.34434
O          2.00814        0.52014       -0.74991
O          1.49018       -1.84773       -0.21728
H          3.60608        0.75581       -1.08325
H          0.53898       -1.83856       -0.48651
N         -4.26452        1.71222       -0.52471
H         -4.60921        2.40849       -1.17816
C         -4.12371        2.27138        0.82976
H         -5.06359        2.66730        1.22799
H         -3.75558        1.48686        1.49359
H         -3.37974        3.07002        0.80803
H         -4.92252        0.93588       -0.52277
N          4.61690        0.69310       -0.76601
H          4.48087       -0.01056       -0.00394
C          5.08857        1.98482       -0.22171
H          6.07767        1.86184        0.21879
H          5.11912        2.72804       -1.01778
H          4.38034        2.29792        0.54477
H          5.21354        0.32347       -1.50163
