34
2sa2dma_29.log	Energy: -1048357.7973008
S          2.00033        0.86524       -0.58434
O          1.56683        0.43559        0.79034
O          3.41124        0.68831       -0.84915
O          1.26708       -0.19787       -1.57081
O          1.40899        2.18789       -0.89026
H          0.03167        2.29627        0.06869
S         -2.11979       -0.73163       -0.46557
O         -3.54809       -0.89016       -0.65196
O         -1.64464       -0.46212        0.90730
O         -1.45703       -2.24482       -0.71508
O         -1.44579        0.13444       -1.45831
H         -1.81701       -2.60355       -1.53734
H          0.30025       -0.00017       -1.61702
N          0.98994       -2.15708        0.76982
C          0.49469       -2.65982        2.06812
C          2.24575       -2.77746        0.29315
H          0.24793       -2.27507        0.06680
H          1.23851       -2.44471        2.83650
H         -0.44150       -2.14741        2.28976
H          0.32778       -3.73629        2.00220
H          3.03135       -2.58562        1.02468
H          2.10019       -3.85204        0.16983
H          2.51483       -2.31437       -0.65631
H          1.15466       -1.11110        0.83238
N         -0.75136        2.24647        0.76730
C         -1.95228        2.91774        0.22652
C         -0.26036        2.78619        2.05208
H         -0.95220        1.23479        0.87838
H         -1.73304        3.97552        0.07455
H         -2.20447        2.44654       -0.72339
H         -2.77747        2.80291        0.93109
H         -0.01810        3.84206        1.92407
H         -1.03343        2.66990        2.81352
H          0.63566        2.22889        2.32455
