38
2sa2eda_160.log	Energy: -1117817.1073280
S          0.12649       -1.90726       -0.34371
O          0.34079       -0.85719       -1.54215
O          0.18195       -1.10773        0.91182
O         -1.16063       -2.57603       -0.53272
O          1.31477       -2.78123       -0.49109
H          2.63778       -1.88560       -0.61021
S         -0.27143        2.44200       -0.19731
O          1.18344        2.44531       -0.35968
O         -0.78582        2.48703        1.17193
O         -0.81196        3.84559       -0.82998
O         -0.93121        1.38405       -1.02558
H         -0.45862        3.92038       -1.72616
H         -0.16401       -0.00863       -1.37412
H         -2.60254       -1.88890        1.55474
H         -3.55345       -0.76342        2.54978
H         -4.85070       -2.00214        0.71608
H         -5.01916       -0.24119        0.65545
H         -3.11036       -1.72795       -1.02988
H         -4.43668       -0.85999       -1.53331
H         -1.24715       -0.21834        1.20785
H         -2.37189        0.30391        0.12525
C         -3.17701       -0.96036        1.54500
C         -4.30985       -1.06554        0.51933
N         -2.23585        0.11162        1.13678
N         -3.73563       -0.95456       -0.81118
H         -2.29824        1.00900        1.62082
H          4.12919        0.70604       -0.87955
H          2.36719        0.45608       -1.01358
H          3.01133        1.42219        1.21413
H          2.20584       -0.13843        1.34338
H          5.04707        0.37211        1.79374
H          4.02715       -0.60772        2.61022
H          3.90986       -1.49004       -1.63864
H          4.19098       -1.58081        0.01853
C          3.27035        0.15467       -0.48657
C          3.12668        0.35288        1.01778
N          3.52407       -1.30028       -0.71721
N          4.27507       -0.27688        1.68564
