38
2sa2eda_284.log	Energy: -1117796.8869774
S          0.54234       -1.71003       -0.75218
O          1.76264       -2.29293       -1.28285
O         -0.66626       -2.56572       -0.83798
O          0.69976       -1.14881        0.62218
O          0.24800       -0.43336       -1.69494
H          2.20540       -1.20596        1.16559
H         -0.63196       -0.08059       -1.44638
S         -2.99671       -0.36962        0.43487
O         -2.12628        0.37605       -0.46314
O         -4.39930       -0.05551        0.51809
O         -2.84203       -1.89353        0.20718
O         -2.33786       -0.11928        1.88497
H         -1.91853       -2.16292       -0.18767
H         -2.97855       -0.37854        2.56285
H          1.15792        3.99749       -0.17889
H          1.58940        2.64722       -1.23487
H         -0.39046        3.95774       -2.01168
H         -0.72491        2.23917       -1.81328
H         -2.29121        4.06138       -0.79920
H         -2.01056        2.68837        0.02223
H          0.14813        2.48287        1.31336
H          0.49521        1.18740        0.38868
C          0.83237        3.01137       -0.52899
C         -0.50172        3.16508       -1.26312
N          0.81301        2.12359        0.63422
N         -1.56690        3.53040       -0.33076
H          5.12486       -0.89661        0.61254
H          3.85931       -1.51629       -0.50470
H          4.47987        0.99450       -0.81347
H          2.76774        0.63061       -0.60423
H          4.39672        2.13496        1.18209
H          2.73461        1.91798        1.14820
H          3.50203       -1.96924        1.95986
H          3.29732       -0.28420        2.06922
C          4.08292       -0.80851        0.29389
C          3.73705        0.63520       -0.09503
N          3.22208       -1.12587        1.46686
N          3.65244        1.45398        1.11225
