38
2sa2eda_48.log	Energy: -1117823.0282187
S          2.06181        1.39177       -0.64444
O          2.40801        0.22505       -1.48313
O          1.33405        2.44857       -1.36589
O          1.44039        1.00926        0.63488
O          3.47742        2.04614       -0.18025
H          3.92212        2.39222       -0.96613
S         -2.06189       -1.39149       -0.64426
O         -2.40704       -0.22424       -1.48265
O         -1.33365       -2.44801       -1.36571
O         -1.44165       -1.00987        0.63588
O         -3.47804       -2.04595       -0.18193
H         -3.92158       -2.39223       -0.96837
H         -1.78143        3.62052        0.88162
H         -2.79722        3.23792       -0.53620
H         -3.90739        2.67797        1.65526
H         -3.72783        1.27123        0.60483
H         -2.84654        1.38442        3.16566
H         -2.18190        0.38523        2.03511
H         -0.45108        2.42722       -0.75376
H         -0.67978        1.49165        0.57023
C         -2.25718        2.81739        0.31518
C         -3.17378        1.99356        1.21907
N         -1.18200        1.94247       -0.20846
N         -2.38688        1.35420        2.26616
H         -1.58502        1.17944       -0.79199
H          1.77889       -3.62002        0.88205
H          2.79531       -3.23986       -0.53598
H          3.90650       -2.68060        1.65492
H          3.72906       -1.27401        0.60394
H          2.84893       -1.38349        3.16470
H          2.18328       -0.38563        2.03364
H          0.45081       -2.42571       -0.75457
H          0.68001       -1.49021        0.56926
C          2.25594       -2.81797        0.31516
C          3.17390       -1.99519        1.21858
N          1.18214       -1.94170       -0.20907
N          2.38827       -1.35434        2.26567
H          1.58621       -1.17922       -0.79255
