28
2sa2ma_15.log	Energy: -999031.6130937
S         -1.09082        1.57190        0.15319
O         -0.64373        0.72424        1.29621
O         -1.01666        0.63404       -1.15279
O         -2.51382        1.88881        0.23537
O         -0.15223        2.69401       -0.07332
H          1.40522        2.15033        0.18014
S          1.16854       -1.71958        0.02183
O          2.22727       -2.69848       -0.03379
O         -0.20930       -2.23424        0.20045
O          1.46802       -0.84009        1.37746
O          1.22064       -0.68148       -1.05672
H          0.64559       -0.30807        1.53495
H         -0.13663        0.15251       -1.19975
N         -2.70900       -1.18121        0.37427
H         -3.12638       -1.64751        1.17755
H         -2.82235       -0.16303        0.49517
C         -3.30540       -1.62895       -0.90800
H         -2.82624       -1.05838       -1.70187
H         -3.10363       -2.69145       -1.03672
H         -4.37800       -1.43731       -0.90011
H         -1.68061       -1.40688        0.37696
N          2.36473        1.72930        0.32677
H          2.82027        2.24429        1.07797
C          3.15539        1.75793       -0.92968
H          4.14544        1.34297       -0.74334
H          2.63377        1.13766       -1.65613
H          3.23054        2.78700       -1.27922
H          2.21803        0.75565        0.65006
