38
2sa2eda_250.log	Energy: -1117805.4722419
S         -2.60086       -0.91267       -0.58397
O         -2.00704       -2.23602       -0.84829
O         -4.01933       -0.76036       -0.84940
O         -2.46805       -0.66387        1.01415
O         -1.76312        0.17606       -1.19540
H         -1.51884       -0.78250        1.26105
H         -2.18161        1.51779       -0.76461
S          1.09253       -1.64657        0.57521
O          2.31289       -2.09910        1.25552
O          0.19370       -0.82259        1.40221
O          1.45169       -0.93063       -0.70751
O          0.31783       -2.95008        0.14888
H          2.91863       -0.79494       -0.72340
H         -0.56256       -2.70579       -0.27425
H          4.00995        1.40306       -2.06096
H          4.06257        2.74175       -0.91896
H          5.12440        1.01341        0.25752
H          3.46807        0.95174        0.90043
H          4.61955       -0.86388       -1.12609
H          4.02116       -1.24523        0.39392
H          1.85537        2.40362       -1.94198
H          1.66500        1.02585       -1.07684
C          3.60416        1.76402       -1.09952
C          4.07934        0.82374        0.00394
N          2.15308        1.92401       -1.09876
N          3.95032       -0.60318       -0.40546
H         -2.57961        3.44089        1.52770
H         -2.68150        1.65093        1.54848
H         -0.43729        2.49194        2.36700
H         -0.31847        1.44511        0.95806
H          0.15288        4.31051        1.01634
H          0.87474        3.12043        0.11714
H         -3.39596        2.72388       -0.59372
H         -1.78573        3.19602       -0.76007
C         -2.17680        2.51302        1.11037
C         -0.66247        2.42778        1.29599
N         -2.43181        2.50667       -0.35454
N         -0.01322        3.46174        0.48839
