34
2sa2dma_12.log	Energy: -1048358.4614129
S         -0.04499        2.16588       -0.40461
O         -1.46527        1.89140       -0.70513
O          0.31026        2.20555        1.00752
O          0.86328        1.31340       -1.22400
O          0.21929        3.68300       -0.91582
H         -0.05535        3.74365       -1.84111
S          0.02219       -2.21397       -0.37258
O         -1.42976       -2.27267       -0.66447
O          0.71991       -3.48161       -0.33849
O          0.71806       -1.41872       -1.60663
O          0.25544       -1.32360        0.81158
H          0.51638       -0.45824       -1.56368
H          1.68982       -0.54119        0.82589
N         -2.71711       -0.21997        0.51534
C         -4.14329       -0.25547        0.13850
C         -2.46591       -0.15134        1.97098
H         -2.23105       -1.06230        0.10941
H         -4.63687        0.64919        0.49709
H         -4.21746       -0.31205       -0.94747
H         -4.61019       -1.13608        0.58215
H         -2.90883        0.76253        2.37012
H         -2.90692       -1.02702        2.44983
H         -1.38755       -0.15197        2.12305
H         -2.25875        0.59763        0.05961
N          2.56432        0.00576        0.59743
C          3.55166       -0.92099       -0.00014
C          3.03956        0.73845        1.78928
H          2.21694        0.66796       -0.11755
H          3.81847       -1.67632        0.73986
H          3.09010       -1.40328       -0.86203
H          4.43886       -0.36172       -0.30189
H          3.27812        0.01824        2.57321
H          3.93196        1.31107        1.53009
H          2.24482        1.41084        2.11092
