38
2sa2eda_274.log	Energy: -1117805.4597608
S          1.82221       -1.65721       -0.02193
O          2.74746       -2.75670       -0.16923
O          0.39058       -2.00491        0.09941
O          2.21672       -0.68731        1.06353
O          1.95720       -0.76193       -1.37011
H          2.97160        0.49363        0.51372
H          1.06469       -0.45736       -1.68920
S         -1.70354        0.18407       -1.65368
O         -2.81891        0.34138       -2.56044
O         -0.34956        0.21942       -2.23418
O         -1.78915        1.08092       -0.44546
O         -1.88225       -1.31111       -1.02252
H         -2.76059        0.45494        0.65031
H         -0.99998       -1.62673       -0.68597
H         -1.12249       -1.67030        2.05561
H         -1.03417       -0.98885        3.68193
H         -3.35743       -1.18054        3.12567
H         -2.93893        0.55533        3.12455
H         -3.11040       -1.12807        0.67957
H         -4.27965       -0.06776        1.20165
H          0.50122        0.06713        2.19655
H         -0.67675        0.56877        1.22313
C         -1.28947       -0.75358        2.64388
C         -2.76990       -0.40393        2.63057
N         -0.47195        0.36880        2.20174
N         -3.28354       -0.27691        1.23135
H          0.79494        1.35425       -0.02508
H          1.11882        2.64284       -1.16695
H          2.96822        3.48991        0.17830
H          2.46520        2.51724        1.57713
H          3.26610        1.22508       -0.95514
H          4.32995        1.52672        0.28238
H         -0.66695        3.36464        0.06052
H         -0.03878        2.94312        1.49138
C          1.10071        2.40442       -0.09859
C          2.50129        2.55226        0.48535
N          0.20442        3.32562        0.57978
N          3.34737        1.40151        0.04919
