38
2sa2eda_202.log	Energy: -1117808.2059995
S         -1.24359        1.89433       -0.70463
O          0.09973        2.18490       -1.18872
O         -1.99443        0.87863       -1.47544
O         -1.28327        1.61575        0.75674
O         -2.03847        3.28414       -0.92675
H         -2.98052        3.13087       -0.77091
S         -2.01068       -1.69782        0.83227
O         -2.52663       -2.90777        1.40189
O         -0.56462       -1.55198        0.64400
O         -2.71273       -1.48212       -0.56218
O         -2.51184       -0.48486        1.70961
H         -2.42809       -0.61074       -0.96545
H         -2.08120        0.36563        1.39387
H          1.83312       -0.25864        2.69491
H          2.76951       -1.14314        1.46580
H          4.23298        0.46219        2.72931
H          4.12193        0.90169        1.02218
H          2.70094        2.25232        3.19892
H          3.64334        2.90529        2.02727
H          0.64131       -0.23866        0.69230
H          1.24970        1.30806        0.89006
C          2.41413       -0.15849        1.77400
C          3.55057        0.83976        1.95513
N          1.50378        0.32945        0.71699
N          2.99137        2.15869        2.23178
H          1.93510        0.27876       -0.24237
H          3.09733       -2.31815       -2.93911
H          1.89477       -3.24765       -2.04107
H          0.92002       -1.29347       -3.22728
H          0.61974       -1.28759       -1.48663
H          2.75844        0.28513       -2.75941
H          1.34177        0.87992       -2.18744
H          3.64052       -3.00506       -0.57174
H          3.87243       -1.42542       -0.90067
C          2.42671       -2.29247       -2.06376
C          1.40063       -1.18033       -2.24608
N          3.16032       -2.14211       -0.80267
N          2.02897        0.13541       -2.06807
