22
2sa2a_23.log	Energy: -949702.8993708
S         -2.19778       -0.62877        0.07687
O         -2.51637        0.22751       -1.10495
O         -1.46121        0.22039        1.07480
O         -3.29281       -1.40375        0.60527
O         -1.11714       -1.70825       -0.43461
H         -0.30979       -1.22877       -0.72530
S          1.72511        0.59963        0.13463
O          1.25731        1.93800       -0.24410
O          1.27153       -0.44443       -0.86424
O          3.17415        0.48390        0.36788
O          1.06575        0.19154        1.51116
H          0.05567        0.15495        1.41441
N         -1.41654        2.53670       -0.53847
H         -1.61554        3.33580       -1.13292
H         -1.89569        1.63742       -0.88714
H         -0.39026        2.35709       -0.47964
H         -1.75900        2.69428        0.40770
N          3.31340       -2.04282       -0.50336
H          2.37748       -1.64829       -0.82827
H          3.17953       -2.80949        0.15163
H          3.90245       -2.32694       -1.28129
H          3.69005       -1.19615       -0.02011
