28
2sa2ma_06.log	Energy: -999033.3832414
S          2.14356       -0.12314       -0.52061
O          2.00945       -1.55607       -0.87604
O          1.47024        0.12997        0.79842
O          3.45995        0.46169       -0.65158
O          1.23022        0.70021       -1.58241
H          0.32668        0.30232       -1.60731
S         -2.22062       -0.02766       -0.25003
O         -1.29155       -0.26678       -1.37363
O         -2.19633       -1.14075        0.72325
O         -2.13357        1.31128        0.34580
O         -3.70887       -0.01763       -0.88726
H         -3.85472       -0.85963       -1.33934
N          0.09265       -2.67520        0.63169
H         -0.17052       -3.59734        0.29158
H          0.79929       -2.25903       -0.03704
C          0.67585       -2.73129        1.99306
H          0.99088       -1.72009        2.24765
H         -0.07319       -3.09115        2.69831
H          1.54246       -3.39222        1.98571
H         -0.76212       -2.07356        0.62504
N          0.31052        2.51544        0.52902
H          0.84157        1.63650        0.78629
H          0.67067        2.78357       -0.38742
C          0.43522        3.58423        1.53934
H         -0.10982        4.46925        1.21146
H          0.01184        3.22314        2.47600
H          1.48846        3.82462        1.68223
H         -0.67353        2.19183        0.40543
