28
2sa2ma_36.log	Energy: -999019.8194360
S          1.52317       -1.43076       -0.04696
O          0.10542       -1.88390        0.11263
O          1.76067       -0.75738       -1.32730
O          2.00383       -0.73396        1.14737
O          2.38239       -2.79089       -0.19581
H          2.29856       -3.29896        0.62310
S         -2.45252       -0.08954       -0.01040
O         -3.86899        0.11077        0.04497
O         -1.58166        1.06282       -0.23186
O         -1.99330       -0.80293        1.32968
O         -2.14455       -1.17739       -1.12294
H         -1.08833       -1.18358        1.19115
H         -1.22983       -1.53177       -0.98155
N          0.91511        1.88672       -1.18249
H         -0.08162        1.68809       -1.01439
H          1.33190        2.15102       -0.22808
C          1.12514        2.92038       -2.21207
H          2.19489        3.07865       -2.34917
H          0.68190        2.59892       -3.15461
H          0.65769        3.85086       -1.88935
H          1.33726        0.97324       -1.42908
N          1.83377        2.22513        1.39527
H          2.20730        1.27949        1.49157
C          0.63125        2.35732        2.23195
H          0.82120        2.17042        3.29455
H          0.21510        3.36199        2.12095
H         -0.12106        1.64581        1.88472
H          2.55360        2.87450        1.69535
