34
2sa2dma_98.log	Energy: -1048320.9502397
S          3.99958       -0.17262        0.08232
O          3.15747        0.25698        1.18374
O          5.38906       -0.48155        0.28692
O          3.34632       -1.37564       -0.66653
O          3.88803        1.03355       -0.97973
H          2.32957       -1.32254       -0.65612
H          4.56181        0.90851       -1.66347
S         -0.07609       -0.26694        0.01395
O          0.79357       -1.29500       -0.58640
O         -1.47511       -0.65282        0.18624
O          0.44106       -0.02131        1.51160
O          0.05497        1.04671       -0.68771
H          1.41404        0.12143        1.49426
H         -1.25387        1.83896       -0.54803
N         -2.21736        2.30379       -0.40443
C         -2.54017        2.24491        1.04449
C         -3.20165        1.60113       -1.26483
H         -2.12845        3.27529       -0.69905
H         -2.56727        1.19390        1.33205
H         -1.75119        2.75348        1.59857
H         -3.50599        2.71947        1.22486
H         -3.19655        0.55009       -0.97579
H         -4.19222        2.03626       -1.12287
H         -2.88908        1.69582       -2.30478
N         -4.35911       -1.74049        0.24619
C         -4.90739       -0.78546        1.18042
C         -5.03327       -1.76148       -1.03264
H         -3.35638       -1.62463        0.14700
H         -5.92663       -1.07739        1.46011
H         -4.30153       -0.76977        2.09054
H         -4.96855        0.24980        0.78336
H         -6.05624       -2.13567       -0.90786
H         -5.10936       -0.76821       -1.52065
H         -4.51062       -2.43674       -1.71445
