22
2sa2a_09.log	Energy: -949709.8226137
S         -2.03031       -0.02394        0.29443
O         -3.44333       -0.08090        0.56382
O         -1.23469       -1.21698        0.75039
O         -1.66743        0.25337       -1.13470
O         -1.45803        1.21109        1.14440
H         -0.65674        1.46431       -1.46788
H         -0.47142        1.16849        1.18154
S          2.02703        0.02656        0.29849
O          3.43921        0.08155        0.57297
O          1.22937        1.21540        0.76007
O          1.66974       -0.24228       -1.13405
O          1.45209       -1.21556        1.13720
H          0.66183       -1.46188       -1.46847
H          0.46565       -1.17062        1.17590
N          0.12949        2.17729       -1.51714
H          0.66281        2.03820       -0.62411
H         -0.23098        3.12345       -1.60214
H          0.75367        1.94582       -2.28680
N         -0.11500       -2.18452       -1.51009
H          0.26137       -3.12743       -1.55395
H         -0.72489       -1.99262       -2.30138
H         -0.66579       -2.02461       -0.62976
