28
2sa2ma_12.log	Energy: -999033.6089879
S         -2.19443       -0.35687       -0.16560
O         -1.76550       -1.76686       -0.05306
O         -2.42523        0.35865        1.07755
O         -1.32086        0.39956       -1.11778
O         -3.65017       -0.41231       -0.87404
H         -3.59475       -0.99476       -1.64397
S          2.14079        0.39777       -0.30120
O          3.44860       -0.22250       -0.31689
O          1.37527        0.21905        0.97772
O          2.07207        1.81586       -0.72580
O          1.28796       -0.45632       -1.38710
H          0.66279        2.52156       -0.25189
H          0.34895       -0.15686       -1.38337
N          0.59396       -2.30974        1.22407
H          0.46939       -2.65004        2.17454
H         -0.34402       -2.21272        0.77580
C          1.49090       -3.18292        0.42708
H          1.59003       -2.73828       -0.56251
H          2.47066       -3.21959        0.90192
H          1.05968       -4.18138        0.35611
H          0.97481       -1.31870        1.25130
N         -0.33339        2.73015        0.03381
H         -0.65049        3.57484       -0.43617
C         -0.45903        2.82635        1.50924
H         -1.51154        2.90041        1.77761
H         -0.03221        1.91624        1.92657
H          0.09800        3.69678        1.85603
H         -0.87544        1.92373       -0.34098
