28
2sa2ma_47.log	Energy: -999014.0077507
S          1.84895       -0.40130       -0.69517
O          3.15020       -0.62765       -1.34506
O          0.67504       -0.79782       -1.48469
O          1.82803       -0.95661        0.69054
O          1.80031        1.19694       -0.52936
H          3.37099       -0.96700        1.18536
H          0.89424        1.47187       -0.24584
S         -1.94395        0.98759        0.00013
O         -0.74863        1.81028        0.14346
O         -3.23407        1.62850       -0.13838
O         -1.78496        0.05911       -1.26996
O         -1.96607       -0.00447        1.20207
H         -0.84865       -0.29482       -1.34187
H         -2.92984       -0.45822        1.25187
N          4.41035       -0.76936        1.04130
H          4.99652       -1.45741        1.50654
C          4.71805        0.62811        1.43272
H          5.75525        0.85930        1.19167
H          4.04716        1.28024        0.87234
H          4.54062        0.74868        2.50074
H          4.45556       -0.87238        0.01114
N         -4.33432       -0.98479        1.13831
H         -4.70868       -1.38932        1.99095
C         -4.42013       -1.93260        0.01431
H         -5.44825       -2.23737       -0.20566
H         -3.98683       -1.46288       -0.87060
H         -3.82710       -2.81812        0.25096
H         -4.86952       -0.14331        0.93470
