38
2sa2eda_256.log	Energy: -1117804.0087392
S          2.61778       -1.49675       -0.14973
O          1.91711       -1.91134        1.07200
O          1.94861       -1.80422       -1.40948
O          3.05931       -0.06316       -0.09025
O          3.98611       -2.35343       -0.08329
H          4.50181       -2.17161       -0.88116
S          1.20176        2.43611        0.13785
O          0.99492        3.85098        0.21552
O          0.02396        1.56357        0.16348
O          2.02895        2.11621       -1.17055
O          2.17336        1.99483        1.30569
H          2.41320        1.20260       -1.09210
H          2.57748        1.11496        1.07665
H         -1.87466       -0.81193       -0.91883
H         -0.43869       -1.84795       -1.15391
H         -2.63868       -3.15804       -1.00694
H         -1.45764       -3.63339        0.22046
H         -3.77538       -1.88244        0.63150
H         -3.35391       -3.24488        1.48235
H         -0.45218       -0.06214        0.69669
H         -1.41623       -1.21833        1.50290
C         -1.26019       -1.60275       -0.47887
C         -2.10974       -2.81668       -0.10763
N         -0.68829       -1.06187        0.78651
N         -2.99063       -2.43475        0.99538
H          0.19454       -1.54602        1.04272
H         -5.56724        1.45951       -0.50541
H         -5.47063        0.63560        1.05661
H         -3.67782        2.29286        0.83849
H         -3.01689        0.65943        0.96384
H         -3.28374        2.14713       -1.55014
H         -1.89931        1.71283       -0.80290
H         -5.78692       -0.91445       -0.80709
H         -4.32834       -0.46432       -1.40374
C         -4.97104        0.74769        0.08884
C         -3.58111        1.33378        0.30918
N         -4.86924       -0.56793       -0.54814
N         -2.86436        1.43327       -0.96147
