38
2sa2eda_93.log	Energy: -1117821.2749949
S         -3.01938       -0.01866       -0.28069
O         -2.72945        1.26270       -0.93228
O         -2.92014       -1.19392       -1.17053
O         -2.28497       -0.20411        0.99273
O         -4.56862        0.03966        0.21060
H         -5.12363        0.17726       -0.56900
S          2.41630        0.02700       -0.53957
O          1.69869       -0.75521       -1.56465
O          2.88684        1.33667       -0.98294
O          1.69151        0.02795        0.75588
O          3.74755       -0.83834       -0.15795
H          4.39694       -0.71052       -0.86278
H         -0.86973        3.77316        1.44873
H          0.21006        2.87469        2.54356
H          1.43093        4.62173        1.13447
H          2.04975        2.98028        0.93646
H          0.78909        4.55696       -1.07891
H          1.62702        3.12972       -1.20831
H         -1.26008        1.33996        1.23571
H         -0.66281        2.02906       -0.14202
C         -0.02404        3.08317        1.49740
C          1.19043        3.62891        0.73799
N         -0.43718        1.82320        0.84145
N          0.91252        3.63196       -0.69179
H          0.34412        1.13585        0.84283
H         -0.76942       -4.07081        0.28212
H          0.22906       -3.92742       -1.18863
H          1.55827       -4.52807        0.89924
H          2.11861       -3.05584        0.10872
H          1.23826       -3.25299        2.73626
H          1.52242       -1.85197        1.90521
H         -1.36663       -2.01437       -0.82903
H         -0.55483       -1.69834        0.56952
C          0.03259       -3.50747       -0.19992
C          1.28819       -3.49147        0.67608
N         -0.44270       -2.11550       -0.36493
N          1.02233       -2.73551        1.89612
H          0.26290       -1.55279       -0.88208
