34
2sa2dma_44.log	Energy: -1048348.1985771
S         -1.12479        0.05720       -0.89646
O          0.11965        0.51506       -1.55882
O         -2.33573        0.10858       -1.73632
O         -0.96225       -1.47896       -0.56257
O         -1.33522        0.76920        0.40028
H         -0.03440       -1.70784       -0.18706
H         -3.03417        0.30484        0.83143
S          2.53870       -1.28354        0.39293
O          3.78414       -1.98507        0.59195
O          1.33185       -2.14245        0.26245
O          2.29547       -0.15922        1.34247
O          2.68350       -0.55578       -1.06859
H          1.86749        1.22096        0.74859
H          1.78935       -0.37956       -1.42305
N          1.59510        2.11343        0.23181
C          2.81120        2.67998       -0.38692
C          0.87556        3.02292        1.14314
H          0.95476        1.76657       -0.50268
H          3.50263        2.97940        0.40195
H          3.27216        1.90338       -0.99778
H          2.54520        3.54378       -0.99913
H          1.52554        3.27030        1.98394
H          0.59881        3.93392        0.60847
H         -0.01942        2.50767        1.49028
N         -3.90848       -0.13544        0.46783
C         -5.09807        0.67739        0.78735
C         -3.96692       -1.54858        0.91424
H         -3.68884       -0.10745       -0.55175
H         -5.23371        0.71047        1.86918
H         -4.94811        1.68545        0.40099
H         -5.97613        0.23013        0.31970
H         -4.07622       -1.57706        1.99908
H         -4.81862       -2.03674        0.43897
H         -3.03712       -2.03388        0.61421
