38
2sa2eda_140.log	Energy: -1117822.6498367
S          0.84745        2.42729       -0.12612
O          1.78375        1.39007       -0.64904
O          0.15914        1.89333        1.10204
O          1.39866        3.75147        0.03202
O         -0.31795        2.55489       -1.23044
H         -0.55632        1.65044       -1.55130
S         -0.43322       -1.22276       -1.28552
O         -1.15026        0.02640       -1.67181
O         -0.42636       -1.34857        0.20980
O         -0.84753       -2.42843       -1.96647
O          1.10211       -0.97830       -1.70697
H          1.36962       -0.05881       -1.44065
H          3.31809       -1.18584        2.64068
H          1.74876       -2.00582        2.86018
H          3.33018       -3.35701        1.42248
H          1.85093       -2.90683        0.57315
H          4.50112       -2.07350       -0.07891
H          3.10134       -1.87179       -0.93825
H          1.49530        0.38338        2.15216
H          2.31759        0.02163        0.77019
C          2.42040       -1.54521        2.13186
C          2.77897       -2.51091        0.99817
N          1.73730       -0.38333        1.52359
N          3.53117       -1.79589       -0.02399
H          0.84715       -0.68111        1.04870
H         -1.89581       -0.56300        1.89843
H         -2.90544        0.68430        2.67353
H         -4.18031       -1.41548        2.18306
H         -4.85651       -0.02637        1.32854
H         -3.08289       -2.00406        0.05575
H         -4.64322       -1.64981       -0.33386
H         -1.40530        1.45858        0.86628
H         -2.24677        0.50499       -0.22158
C         -2.74690        0.10597        1.76094
C         -3.98732       -0.69341        1.37480
N         -2.35060        1.02981        0.67056
N         -3.79024       -1.27536        0.06005
H         -3.03190        1.77142        0.51850
