38
2sa2eda_204.log	Energy: -1117809.7093176
S          0.21630       -1.32211        0.09152
O          0.50105       -0.38564       -1.03415
O          0.63549       -0.78365        1.38920
O         -1.20298       -1.77327        0.05614
O          1.03976       -2.63873       -0.19768
H          2.01335       -2.48587        0.06015
S         -3.68302        0.12818       -0.12310
O         -2.77535        1.27016       -0.05698
O         -5.09284        0.36403       -0.22541
O         -3.24316       -0.79776       -1.33384
O         -3.42186       -0.78928        1.14373
H         -2.36648       -1.21062       -1.11658
H         -2.51344       -1.17992        1.07356
H         -0.34172        3.45008        1.08861
H         -0.47023        1.71666        1.48648
H          1.80748        2.68160        2.08407
H          1.84578        1.32288        0.96345
H          2.50782        4.07085        0.34592
H          3.07854        2.64810       -0.28561
H         -1.24632        2.20015       -0.74291
H          0.32247        2.78943       -1.12290
C          0.05078        2.45276        0.87360
C          1.56219        2.37350        1.06064
N         -0.24097        2.15218       -0.55212
N          2.24361        3.14739        0.02439
H          0.05806        1.16437       -0.77688
H          3.29561       -0.22530        1.10457
H          4.99899       -0.64753        0.86832
H          4.48601       -1.00099       -1.60047
H          2.85304       -0.38210       -1.29409
H          5.32099        1.15106       -0.83998
H          4.22304        1.39563       -2.01551
H          4.23689       -2.81761        0.09420
H          3.55584       -2.51188        1.54823
C          3.98055       -0.80603        0.48264
C          3.89347       -0.32544       -0.96159
N          3.57384       -2.21649        0.57638
N          4.33196        1.07095       -1.05968
