38
2sa2eda_126.log	Energy: -1117819.3284542
S          2.94271        0.12671       -0.19667
O          2.97024       -1.03278       -1.10269
O          1.70705        0.16288        0.62638
O          4.18085        0.42397        0.49822
O          2.66062        1.44697       -1.18464
H          3.46258        1.61206       -1.69737
S         -2.13947       -0.13247       -0.99647
O         -1.71077       -0.26080        0.40889
O         -1.85820        1.20459       -1.56127
O         -1.70187       -1.24467       -1.85062
O         -3.75836       -0.24564       -0.88797
H         -4.11416       -0.35468       -1.78051
H          0.66601       -4.19545        0.17489
H          1.75898       -3.09545        1.06403
H         -0.10596       -3.90282        2.49712
H         -0.13943       -2.14921        2.30388
H         -2.26047       -3.72193        1.85469
H         -2.03832       -2.32015        1.02686
H          0.55724       -1.24249        0.10788
H          1.31586       -2.11820       -1.01378
C          0.74730       -3.22775        0.67334
C         -0.29620       -3.10161        1.77686
N          0.53336       -2.17207       -0.34763
N         -1.63828       -3.23345        1.22463
H         -0.36402       -2.25396       -0.84974
H          0.39886        3.95287        1.24166
H         -0.61406        4.30655       -0.18769
H         -1.94893        4.03580        1.93210
H         -2.41441        2.88564        0.67577
H         -1.69124        2.18773        3.19766
H         -1.56298        1.17182        1.90365
H          1.03927        2.53282       -0.62805
H          0.44071        1.63620        0.58614
C         -0.37452        3.56325        0.57644
C         -1.61244        3.15650        1.37515
N          0.17819        2.36503       -0.09878
N         -1.27458        2.06963        2.28466
H         -0.52952        1.94264       -0.74028
