34
2sa2dma_58.log	Energy: -1048341.8551152
S         -2.55867       -0.50074        0.30531
O         -1.24699       -0.46586        1.02213
O         -3.73716       -0.55755        1.14251
O         -2.58896        0.47968       -0.79706
O         -2.43072       -1.97068       -0.42765
H         -1.60125        1.77714       -0.92732
H         -3.31738       -2.23742       -0.70590
S          0.38533        2.22050       -0.23065
O         -0.98508        2.56773       -0.91638
O          1.18256        3.41294       -0.19593
O         -0.00806        1.86511        1.26560
O          0.92905        1.00797       -0.84127
H         -0.50842        1.00229        1.28449
H          1.71862       -1.40858       -0.19205
N          3.15860       -0.59072        0.17290
C          4.45324       -1.15244       -0.20107
C          3.07307       -0.23892        1.59148
H          2.96381        0.24487       -0.37533
H          4.59817       -2.10952        0.31030
H          4.47949       -1.33211       -1.27878
H          5.29284       -0.49411        0.06429
H          3.14925       -1.14820        2.19702
H          3.86847        0.45096        1.90473
H          2.10908        0.23624        1.78944
N          0.75767       -1.84741       -0.38095
C          0.64926       -3.14095        0.32018
C          0.54076       -1.92815       -1.84101
H          0.06107       -1.20150        0.03165
H          1.39919       -3.83047       -0.07232
H          0.81822       -2.97620        1.38470
H         -0.35250       -3.54646        0.17345
H          1.29877       -2.58193       -2.27723
H         -0.45728       -2.32378       -2.03081
H          0.62432       -0.92240       -2.25150
