38
2sa2eda_11.log	Energy: -1117823.3447533
S          2.35302       -1.59118       -0.34424
O          2.93374       -0.43674       -1.06557
O          1.60292       -1.21811        0.85776
O          1.63017       -2.52528       -1.23442
O          3.61991       -2.42727        0.24020
H          4.15083       -2.73061       -0.50865
S         -2.30931        1.41066       -0.29477
O         -3.37531        0.64126        0.34627
O         -1.82408        2.57886        0.43908
O         -1.19295        0.55109       -0.79760
O         -2.91380        1.96507       -1.70792
H         -3.61445        2.59811       -1.50066
H          0.46279        2.47661        1.27700
H          1.47977        1.02491        1.48215
H          2.67168        3.09950        2.28559
H          3.51278        2.33038        0.93553
H          1.83736        4.72921        0.72939
H          3.39241        4.52916        0.25424
H          0.34013        1.33708       -0.71050
H          1.44903        2.59939       -0.97401
C          1.39200        1.98648        0.97498
C          2.60457        2.87560        1.21299
N          1.28319        1.71552       -0.48232
N          2.50170        4.05851        0.35674
H          1.98664        1.00687       -0.78165
H         -1.18126       -3.82093        0.82226
H         -0.34439       -2.39818        1.49422
H         -2.75323       -2.76390        2.37947
H         -2.44291       -1.16658        1.69671
H         -4.29368       -3.05734        0.72287
H         -4.01602       -1.50290        0.23988
H         -0.12026       -2.47986       -0.88915
H         -1.83517       -2.49860       -1.02171
C         -1.19797       -2.73080        0.90240
C         -2.53369       -2.22834        1.44989
N         -1.02727       -2.19305       -0.47106
N         -3.58059       -2.39831        0.44075
H         -1.05473       -1.15134       -0.48164
