34
2sa2dma_10.log	Energy: -1048358.4521947
S          1.71442        1.50004       -0.33511
O          0.60874        2.44343       -0.14242
O          2.49681        1.14487        0.84994
O          1.31516        0.27421       -1.09307
O          2.69508        2.32673       -1.32698
H          3.54579        1.86956       -1.36371
S         -1.63231       -1.56209       -0.40171
O         -3.05057       -1.79689       -0.57346
O         -1.26630       -0.81910        0.85209
O         -0.73685       -2.73048       -0.56299
O         -1.26162       -0.51643       -1.58822
H          0.71848       -2.42546        0.23917
H         -0.32170       -0.23202       -1.50328
N         -1.94395        1.75406        0.58703
C         -3.08033        1.89638       -0.34957
C         -2.12590        2.42538        1.88896
H         -1.75483        0.72632        0.74818
H         -3.24843        2.95460       -0.55642
H         -2.83606        1.35760       -1.26482
H         -3.96866        1.45273        0.10171
H         -2.28775        3.49264        1.73009
H         -2.98530        1.98891        2.39983
H         -1.22408        2.27746        2.48300
H         -1.06177        2.09401        0.15784
N          1.60011       -1.96463        0.57471
C          2.78055       -2.70594        0.09140
C          1.55143       -1.76078        2.03884
H          1.57175       -1.04515        0.09450
H          2.79686       -3.69651        0.54807
H          2.71129       -2.80163       -0.99223
H          3.68393       -2.15646        0.36046
H          1.61258       -2.73130        2.53402
H          2.38158       -1.11885        2.33433
H          0.60129       -1.28064        2.26930
