38
2sa2eda_153.log	Energy: -1117818.2391605
S         -0.71413       -1.78248       -0.68347
O          0.47412       -2.22226       -1.43968
O         -0.49714       -1.73963        0.76950
O         -1.01772       -0.25905       -1.13962
O         -1.97052       -2.45830       -1.08675
H         -3.14489       -1.40738       -0.67806
S          1.05002        2.59529       -0.11991
O          1.48523        3.50126        0.91823
O          2.09798        2.00941       -0.99223
O          0.11815        1.53048        0.36314
O          0.15371        3.51167       -1.13322
H         -0.50729        0.39710       -0.58333
H          0.21218        3.11834       -2.01393
H          3.24019       -0.03538        1.33010
H          1.52461       -0.51177        1.24355
H          2.87619       -2.28447        2.39523
H          2.14367       -2.86370        0.89836
H          4.97238       -2.21337        1.28708
H          4.30470       -3.52475        0.57308
H          2.45904        0.34393       -0.85108
H          3.49337       -1.01982       -0.86792
C          2.53512       -0.76465        0.92136
C          2.90505       -2.19025        1.30258
N          2.58912       -0.65019       -0.56080
N          4.20137       -2.52644        0.70709
H          1.83944       -1.23952       -0.98910
H         -4.98622       -0.19351        1.31776
H         -3.89194       -1.58769        1.52316
H         -3.10395        0.56820        2.68582
H         -1.93393       -0.14158        1.56982
H         -3.41756        2.31662        1.16611
H         -1.90840        1.87969        0.66418
H         -4.72134       -0.82740       -0.85802
H         -3.45919        0.26969       -0.64577
C         -3.98884       -0.58576        1.10261
C         -2.90124        0.36377        1.62830
N         -3.84069       -0.66147       -0.37865
N         -2.86643        1.55588        0.78707
