38
2sa2eda_137.log	Energy: -1117818.6875411
S         -0.82635       -1.83614        0.66208
O         -0.74664       -0.50345        1.56256
O         -0.55273       -1.37712       -0.73227
O          0.14835       -2.77783        1.18988
O         -2.24315       -2.27327        0.78763
H         -3.06084       -1.55413       -0.33699
S          1.16257        2.56595        0.12568
O          0.70362        3.94255        0.18762
O          2.15250        2.22922       -0.91133
O          1.99421        2.27916        1.50894
O          0.05686        1.56322        0.14436
H          1.57027        2.78029        2.21814
H         -0.35078        0.24978        1.04958
H          3.65203       -0.24735        0.12130
H          2.13784       -0.66591        0.93839
H          3.71452       -2.62743        0.87204
H          2.19724       -2.94400        0.03326
H          4.78472       -2.39684       -1.23953
H          3.70998       -3.58606       -1.56366
H          2.03401        0.53301       -1.27284
H          2.48612       -0.97512       -1.94307
C          2.76295       -0.88119        0.07071
C          3.12053       -2.36022       -0.01059
N          2.02010       -0.50245       -1.16033
N          3.79525       -2.61590       -1.28644
H          1.02673       -0.82439       -1.09602
H         -5.11619        0.48438       -1.07302
H         -4.84484       -0.30515        0.50493
H         -3.90634        2.07705        0.38976
H         -2.69281        0.85287        0.76763
H         -2.91106        2.34451       -1.69532
H         -1.59148        1.69613       -0.94691
H         -4.14538       -1.55173       -1.65409
H         -2.86754       -0.45129       -1.61966
C         -4.35842        0.11511       -0.37682
C         -3.35819        1.22083       -0.01879
N         -3.58134       -0.95388       -1.05669
N         -2.56416        1.53041       -1.20287
