38
2sa2eda_278.log	Energy: -1117797.4726132
S         -3.97176        0.10261        0.39369
O         -5.34800        0.45293        0.62272
O         -2.89712        0.95562        0.87069
O         -3.67513       -1.31442        1.10216
O         -3.79738       -0.20508       -1.12246
H         -4.42776       -1.90329        0.94786
H         -2.81359       -0.20029       -1.41448
S         -0.19692       -0.19599       -1.00452
O          1.08786        0.00423       -1.65894
O         -1.38102       -0.09245       -1.88428
O         -0.25382       -1.40275       -0.14125
O         -0.29468        1.06808        0.01786
H          1.12329       -1.57154        0.71793
H         -1.20673        1.10782        0.38468
H          3.65272       -3.02898        1.22730
H          2.29059       -3.46330        0.17072
H          4.02410       -2.73084       -1.30113
H          2.86882       -1.39516       -1.22549
H          5.49110       -1.48196        0.06202
H          4.80138       -0.28142       -0.80962
H          1.79859       -2.02290        2.17211
H          2.41591       -0.68777        1.35897
C          2.91527       -2.63779        0.52080
C          3.61261       -1.95096       -0.64532
N          2.03400       -1.68233        1.24220
N          4.61270       -1.01643       -0.13861
H          3.51262        2.84418        1.71421
H          4.38211        1.33472        1.32406
H          4.12798        2.64054       -0.67014
H          3.08229        1.21333       -0.82168
H          2.19402        3.57153       -1.36724
H          1.22106        2.56551       -0.54588
H          2.32488        1.16390        2.75696
H          1.45759        1.37434        1.39961
C          3.44273        1.88104        1.19355
C          3.21894        2.16438       -0.28669
N          2.35907        1.04564        1.74801
N          2.09635        3.07830       -0.48781
