38
2sa2eda_03.log	Energy: -1117827.2043632
S          0.23148        2.62197       -0.05384
O          0.43693        1.85369       -1.30125
O         -1.18624        2.70476        0.34683
O          1.15996        2.24227        1.01939
O          0.67757        4.14435       -0.39150
H          0.08253        4.49074       -1.07028
S         -0.19689       -1.60255       -0.94994
O         -0.26114       -1.09471        0.46112
O          1.21732       -1.67797       -1.38007
O         -1.02016       -2.77190       -1.19827
O         -0.88694       -0.43627       -1.83085
H         -0.38700        0.40887       -1.70700
H         -4.30874        0.69480        0.07765
H         -3.04089        0.03315       -0.99175
H         -4.74750       -1.71973       -0.41629
H         -3.13073       -2.13619        0.14425
H         -5.36629       -1.25828        1.81367
H         -4.28411       -2.45532        2.07580
H         -2.11854        1.31346        0.88067
H         -2.83630        0.16305        1.92840
C         -3.49295       -0.02943       -0.00128
C         -3.96570       -1.44626        0.30277
N         -2.45645        0.33918        0.99489
N         -4.39281       -1.52019        1.70303
H         -1.60385       -0.27176        0.85965
H          3.22772       -0.32893        2.22238
H          1.78452       -1.22306        1.66758
H          3.78445       -2.74961        1.82645
H          3.17306       -2.60227        0.17289
H          5.61295       -1.37036        1.21528
H          5.37621       -2.17386       -0.19072
H          2.15251        0.89583        0.49209
H          3.58857        0.21739       -0.12560
C          2.78850       -0.89427        1.39575
C          3.67649       -2.06050        0.97925
N          2.65171        0.02005        0.23682
N          4.94645       -1.53810        0.46969
H          2.10919       -0.47622       -0.50760
