38
2sa2eda_30.log	Energy: -1117821.8064138
S          2.23143        1.69751        0.03445
O          1.46100        2.65180        0.83222
O          3.24715        0.92955        0.75550
O          1.35365        0.84827       -0.82991
O          3.02701        2.56050       -1.09977
H          3.62324        3.16816       -0.64154
S         -2.27270       -1.80163       -0.02704
O         -3.20468       -1.04935       -0.86748
O         -1.39308       -2.73185       -0.76999
O         -1.51084       -0.96890        0.93129
O         -3.17239       -2.72809        0.96245
H         -3.74568       -3.28009        0.41361
H          2.14936       -3.68386       -0.53477
H          2.26983       -2.51124       -1.86705
H          4.42528       -2.76704       -0.48330
H          3.81720       -1.11197       -0.60262
H          4.09266       -2.61608        1.77146
H          3.62022       -1.04051        1.57126
H          0.24255       -2.26031       -0.42535
H          1.30974       -1.88917        0.83036
C          2.30281       -2.63070       -0.78239
C          3.60973       -2.10093       -0.18343
N          1.17992       -1.87060       -0.18875
N          3.47296       -1.99774        1.26672
H          1.21327       -0.86928       -0.47052
H         -1.96405        2.85351       -1.50002
H         -2.48224        1.14525       -1.60961
H         -4.35403        2.58519       -0.80970
H         -3.87318        1.37521        0.37907
H         -3.27721        4.24158        0.51717
H         -3.86034        3.25231        1.68424
H         -0.29875        1.46031       -0.47325
H         -1.09833        2.32748        0.70926
C         -2.30194        1.98150       -0.93319
C         -3.55123        2.29394       -0.12006
N         -1.21223        1.60133       -0.00468
N         -3.23292        3.30025        0.89145
H         -1.42200        0.69551        0.46941
