22
2sa2a_18.log	Energy: -949704.5382435
S          1.80200       -0.62533       -0.05058
O          0.97034       -1.27351       -1.08223
O          2.51970        0.57653       -0.44122
O          1.02314       -0.43353        1.22019
O          2.96158       -1.68764        0.30222
H          2.57410       -2.57347        0.33416
S         -2.16535       -0.26809       -0.04570
O         -3.59259       -0.37698        0.01805
O         -1.53469        1.05226       -0.10745
O         -1.55894       -1.02597        1.20686
O         -1.66927       -1.11508       -1.27885
H         -0.57166       -0.87774        1.25422
H         -0.67257       -1.15424       -1.29448
N          0.37533        2.28035        1.42998
H          0.76744        1.32059        1.50200
H         -0.64011        2.18669        1.48866
H          0.74300        2.88743        2.15602
H          0.58686        2.64468        0.42396
N          0.73745        2.83460       -1.19772
H          1.51399        2.20954       -1.41331
H          0.87935        3.71632       -1.67825
H         -0.11039        2.40164       -1.55890
