28
2sa2ma_34.log	Energy: -999022.6818016
S          1.30100       -0.48710        0.23477
O          2.38777       -1.38829        0.67824
O          0.30957       -0.16022        1.28866
O          1.85388        0.76126       -0.37458
O          0.55489       -1.28762       -0.89367
H          3.52368        0.40888       -0.87873
H         -0.38041       -0.90191       -1.04629
S         -2.85721       -0.43659       -0.17117
O         -3.98078       -1.15130       -0.72322
O         -1.71564       -0.17510       -1.11131
O         -3.19537        0.83877        0.52820
O         -2.23983       -1.41544        0.95761
H         -1.96320        1.76366        0.67750
H         -1.37369       -1.06633        1.25003
N         -1.00618        2.25466        0.70934
H         -1.00241        2.95423        1.44734
C         -0.68558        2.83206       -0.61720
H          0.33489        3.21292       -0.61749
H         -0.78703        2.03173       -1.34896
H         -1.39909        3.62590       -0.83859
H         -0.34322        1.49798        0.96241
N          4.31709       -0.25070       -0.70357
H          3.78190       -0.99532       -0.18098
C          5.35984        0.35852        0.15130
H          6.11287       -0.38972        0.39580
H          5.81937        1.19932       -0.36755
H          4.87856        0.70533        1.06499
H          4.67935       -0.61533       -1.58142
