38
2sa2eda_236.log	Energy: -1117804.6720042
S         -0.57670       -1.54144       -0.83206
O         -0.14674       -1.01529        0.51693
O         -1.56737       -2.59638       -0.75188
O         -0.92936       -0.39649       -1.70058
O          0.72556       -2.23049       -1.45866
H          1.46408       -1.58619       -1.46405
S          3.05291       -0.26637        0.57018
O          3.20475        1.03578        1.18900
O          2.69534       -0.32840       -0.83947
O          4.44953       -1.04178        0.69129
O          2.12498       -1.17766        1.40698
H          4.86629       -0.81182        1.53409
H          1.12294       -1.17113        1.03297
H         -0.11463        3.02561        1.12014
H          0.42351        1.34956        0.88430
H          2.01940        2.97068       -0.17772
H          1.28059        1.90458       -1.36462
H          0.64343        4.72705       -0.96444
H          0.85988        3.90347       -2.35718
H         -1.99134        1.74685        0.39777
H         -1.41802        2.71608       -0.92243
C          0.07735        2.24759        0.37485
C          1.07398        2.72722       -0.67328
N         -1.20429        1.93206       -0.29772
N          0.47538        3.83770       -1.42250
H         -1.09885        1.06931       -0.88045
H         -5.32339        0.78203        1.42060
H         -4.69681        1.66020        0.01573
H         -5.10818       -0.72499       -0.52576
H         -3.39979       -0.33352       -0.68468
H         -4.58914       -1.96100        1.39849
H         -3.14993       -2.12046        0.60767
H         -3.45738        1.92975        2.22343
H         -2.91996        0.40064        1.94956
C         -4.45768        0.88287        0.75068
C         -4.20918       -0.45119        0.04386
N         -3.24319        1.25842        1.49279
N         -3.79826       -1.45461        1.01903
