38
2sa2eda_103.log	Energy: -1117822.0802150
S         -0.78370        2.29811       -0.37206
O          0.59435        2.70164       -0.70409
O         -1.28994        1.19700       -1.21190
O         -1.03473        2.10787        1.06646
O         -1.70996        3.58515       -0.71471
H         -1.54918        3.83572       -1.63480
S          0.46268       -1.98667       -0.62326
O          0.24130       -1.27343        0.66775
O          1.73620       -1.52977       -1.24209
O          0.27082       -3.42159       -0.59500
O         -0.72124       -1.44814       -1.59841
H         -0.79452       -0.47082       -1.52009
H         -3.89089       -1.07250        2.32283
H         -3.86882        0.58894        1.67540
H         -4.68321       -0.98433       -0.06040
H         -3.11351       -0.33489       -0.53653
H         -3.67866       -3.06751        0.21797
H         -2.41737       -2.45449       -0.66802
H         -1.78199       -0.37331        2.87576
H         -1.42765       -1.06114        1.40334
C         -3.43617       -0.41017        1.58260
C         -3.61270       -0.99386        0.18107
N         -1.98078       -0.31402        1.88008
N         -3.01009       -2.31360        0.14222
H         -1.58749        0.59395        1.53626
H          3.00295        1.59047        1.52020
H          1.85694        0.21992        1.43745
H          4.08455       -0.53522        2.32246
H          3.65908       -1.31182        0.79172
H          5.66103        0.78810        1.15343
H          5.75641       -0.59727        0.28783
H          1.93668        1.59717       -0.59593
H          3.54079        1.05008       -0.80254
C          2.79453        0.62407        1.05293
C          3.94205       -0.35905        1.24890
N          2.62120        0.84182       -0.40363
N          5.13382        0.15100        0.56654
H          2.26131       -0.05627       -0.83456
