38
2sa2eda_157.log	Energy: -1117818.0940678
S          1.04307        2.12875       -0.43191
O         -0.06366        3.07361       -0.66967
O          0.95379        1.47286        0.88518
O          1.31518        1.18667       -1.53241
O          2.40006        3.02906       -0.42169
H          2.20024        3.85564        0.03725
S         -1.19947       -1.47165       -1.26998
O         -1.56774       -2.81294       -1.67278
O         -2.19110       -0.40146       -1.50099
O         -0.68393       -1.37891        0.14575
O          0.09926       -1.12822       -2.16825
H          0.83698       -1.90699        0.16044
H          0.41687       -0.20718       -1.98576
H         -3.00561        2.05499        2.23224
H         -3.97266        1.92754        0.73608
H         -4.47225        0.10429        2.39371
H         -3.91172       -0.51521        0.83617
H         -2.84114       -1.27363        3.13477
H         -1.90234       -1.12384        1.79484
H         -1.60534        2.31236        0.20726
H         -1.17688        1.00455        1.09009
C         -3.20055        1.45041        1.34398
C         -3.60009        0.03087        1.73770
N         -1.95404        1.40335        0.54556
N         -2.50009       -0.61615        2.44564
H         -2.07012        0.78461       -0.29317
H          3.77630       -1.64898       -0.36647
H          2.52833       -0.38344       -0.54516
H          3.80209       -0.12673        1.61395
H          2.08864       -0.41790        1.86863
H          4.25111       -2.35056        2.29729
H          2.96060       -2.02265        3.24391
H          1.74677       -2.70594       -0.97106
H          2.03261       -3.00715        0.66686
C          2.85140       -1.23900        0.04986
C          3.01456       -0.88328        1.52121
N          1.80782       -2.29630       -0.03910
N          3.26536       -2.11187        2.28226
