38
2sa2eda_23.log	Energy: -1117823.3186112
S          2.81631        1.02145       -0.14773
O          2.19934        2.22797       -0.74626
O          2.08751        0.51797        1.01797
O          3.14287       -0.01641       -1.15022
O          4.24371        1.50552        0.46222
H          4.80020        1.79977       -0.27152
S         -2.31291       -0.96863       -0.15047
O         -3.36409       -0.27206        0.58199
O         -0.94385       -0.45533        0.15263
O         -2.38243       -2.42918       -0.16267
O         -2.44819       -0.49013       -1.72242
H         -3.28430       -0.83477       -2.06397
H          2.53193       -3.28608        0.52741
H          1.88484       -1.93445        1.49508
H          0.76537       -4.22185        1.96320
H         -0.34785       -2.92800        1.51407
H          0.10451       -5.31661        0.07640
H         -0.98889       -4.10948       -0.20975
H          2.04853       -1.38265       -0.86930
H          0.96776       -2.68288       -1.17612
C          1.64350       -2.68723        0.74357
C          0.45738       -3.56789        1.14105
N          1.27531       -1.97289       -0.50300
N         -0.01212       -4.31766       -0.02515
H          0.46200       -1.34964       -0.31246
H         -0.94287        3.72565       -1.04497
H         -1.43641        2.07675       -1.49771
H         -3.38409        3.44566       -0.65322
H         -3.08280        2.00161        0.31999
H         -2.47464        4.75286        1.09944
H         -3.14581        3.54204        1.97545
H          0.61853        2.32454       -0.03832
H         -0.49229        2.72619        1.18777
C         -1.34283        2.78023       -0.66848
C         -2.67746        2.98018        0.04551
N         -0.36380        2.23033        0.29878
N         -2.45303        3.75334        1.26815
H         -0.54501        1.21586        0.44249
