38
2sa2eda_196.log	Energy: -1117809.8173497
S         -1.26258       -1.74827       -0.71290
O         -1.11076       -1.81756        0.85973
O         -2.62597       -2.09071       -1.02777
O         -0.71776       -0.47634       -1.17019
O         -0.35000       -2.91837       -1.23875
H          0.60619       -2.72609       -1.01906
S          2.33472       -1.10678        0.41013
O          2.09496       -2.31805       -0.39892
O          2.63607        0.11484       -0.33601
O          1.27573       -0.90208        1.43355
O          3.70286       -1.39548        1.22184
H         -0.20429       -1.48191        1.13542
H          3.66326       -2.29587        1.57279
H          0.60003        3.65902        0.85904
H          1.79536        2.41361        1.29481
H          2.83726        4.19191       -0.13983
H          2.85761        2.60402       -0.91546
H          1.13343        4.85012       -1.63465
H          1.94376        3.80996       -2.60473
H         -0.42390        1.56971        0.49158
H          0.04321        2.19137       -1.03949
C          1.25121        2.87118        0.46690
C          2.20359        3.41833       -0.59176
N          0.39326        1.83697       -0.14461
N          1.42429        3.88468       -1.73914
H          0.96211        1.00288       -0.34973
H         -3.62785        2.51314        1.72467
H         -2.51657        3.12019        0.48634
H         -4.35827        1.89064       -0.58107
H         -2.84084        1.01618       -0.82011
H         -5.01692        0.20803        0.92644
H         -4.00521       -0.71226       -0.00349
H         -1.53996        1.82724        2.48474
H         -2.08308        0.50374        1.69270
C         -2.89198        2.20781        0.96790
C         -3.57746        1.31331       -0.06621
N         -1.76844        1.46870        1.56266
N         -4.06806        0.10841        0.58888
