40
2sa2tma_07.log	Energy: -1097674.6209993
S         -0.01447        1.92644       -0.46087
O          0.96500        2.96912       -0.16778
O         -1.14135        2.28340       -1.32606
O          0.87689        0.82165       -1.27411
O         -0.47112        1.19611        0.76346
H         -1.97815        0.65254        0.56454
S         -0.06680       -2.29843       -0.18406
O         -1.25375       -2.62439        0.61309
O          1.10850       -1.82536        0.54755
O          0.45802       -3.71795       -0.80427
O         -0.40114       -1.45834       -1.36651
H         -0.30391       -4.17362       -1.18528
H          0.34258       -0.01510       -1.40610
N          3.07442        0.36157        0.40914
C          2.61938        0.59673        1.80721
H          2.00963        1.50004        1.81974
H          2.01292       -0.25638        2.10852
H          3.49993        0.70871        2.44402
C          3.90092       -0.86633        0.29386
H          3.33224       -1.70615        0.68782
H          4.12074       -1.03985       -0.76000
H          4.82895       -0.71420        0.84940
C          3.77094        1.54994       -0.15183
H          4.04071        1.33718       -1.18656
H          3.08092        2.39414       -0.12236
H          4.66767        1.74321        0.44080
H          2.21132        0.23493       -0.15791
N         -3.01971        0.46492        0.49087
C         -3.67140        1.78984        0.62339
H         -3.41034        2.21417        1.59338
H         -3.29149        2.43557       -0.16888
H         -4.75410        1.66563        0.54433
C         -3.27918       -0.13741       -0.84247
H         -2.90842        0.55408       -1.59930
H         -2.73121       -1.07605       -0.91098
H         -4.35462       -0.29980       -0.95117
C         -3.38067       -0.45563        1.59611
H         -2.81322       -1.37904        1.47019
H         -3.11716        0.01801        2.54270
H         -4.45590       -0.64844        1.56127
