38
2sa2eda_34.log	Energy: -1117823.1133529
S         -1.74528        1.89943       -0.50989
O         -0.66142        2.59214       -1.24136
O         -2.36796        0.81959       -1.30991
O         -1.40346        1.50858        0.85549
O         -2.91224        3.01687       -0.31194
H         -3.15340        3.35489       -1.18497
S          1.74476       -1.89925       -0.50985
O          0.66008       -2.59271       -1.23945
O          2.36372       -0.81761       -1.31031
O          1.40611       -1.51067        0.85694
O          2.91383       -3.01531       -0.31649
H          3.15341       -3.35150       -1.19066
H          1.43058        2.60445        1.41708
H          1.12617        0.85945        1.31518
H          3.22852        1.31455        2.60770
H          3.53368        0.39145        1.13579
H          4.13925        3.22881        1.53371
H          5.08776        2.04986        0.91226
H          0.93380        2.11820       -0.82181
H          2.62069        2.35444       -0.70564
C          1.81327        1.65549        1.03292
C          3.22940        1.37232        1.51219
N          1.83524        1.74730       -0.45039
N          4.13483        2.38779        0.96666
H          2.01211        0.80237       -0.85947
H         -1.42890       -2.60633        1.41275
H         -1.12455       -0.86118        1.31378
H         -3.22448       -1.31848        2.60914
H         -3.53221       -0.39254        1.13951
H         -4.13736       -3.23063        1.53331
H         -5.08694       -2.05049        0.91570
H         -0.93533       -2.11424       -0.82566
H         -2.62162       -2.35316       -0.70761
C         -1.81224       -1.65659        1.03116
C         -3.22744       -1.37419        1.51352
N         -1.83675       -1.74537       -0.45227
N         -4.13394       -2.38858        0.96778
H         -2.01580       -0.79991       -0.85930
