38
2sa2eda_44.log	Energy: -1117825.4488553
S         -0.24501       -2.00577       -0.67504
O         -1.63265       -2.13739       -1.11492
O         -0.19683       -1.30912        0.67791
O          0.61500       -3.17505       -0.71618
O          0.49215       -0.95390       -1.66110
H          0.06936       -0.06491       -1.59187
S          0.11771        2.43559       -0.25748
O         -0.52077        1.53150       -1.23925
O         -0.73950        2.63415        0.93042
O          1.52086        2.12587        0.03924
O          0.23700        3.88058       -0.98028
H         -0.65036        4.16893       -1.23303
H          3.14170       -2.08428        0.08993
H          2.83584       -0.77686       -1.05059
H          5.30273       -0.98321       -0.55328
H          4.66803        0.57971       -0.02828
H          5.28438       -1.67885        1.73047
H          5.77129       -0.12226        1.85432
H          1.38251       -0.82795        0.97980
H          2.79724       -0.37513        1.84502
C          3.21664       -1.00366       -0.05502
C          4.63444       -0.49687        0.16858
N          2.32083       -0.35690        0.93811
N          5.00305       -0.71727        1.56901
H          2.11647        0.62718        0.67126
H         -3.89306        1.22444        0.00884
H         -2.80093        0.20000       -0.95660
H         -5.01042       -0.94007       -0.53807
H         -3.63498       -1.82040        0.13046
H         -5.59899       -0.26803        1.65736
H         -5.00615       -1.76183        1.95787
H         -1.84314        1.26260        1.12308
H         -2.82878        0.15027        1.95891
C         -3.33110        0.28599       -0.00907
C         -4.23656       -0.91417        0.23861
N         -2.32855        0.34506        1.08428
N         -4.76583       -0.84396        1.60415
H         -1.57499       -0.37582        0.95052
