38
2sa2eda_41.log	Energy: -1117825.4306010
S         -0.91479        2.47061       -0.15387
O         -1.55869        2.28290        1.14705
O          0.45127        3.02824       -0.11171
O         -1.01203        1.27929       -1.03564
O         -1.83121        3.60951       -0.85806
H         -1.42890        3.84038       -1.70632
S          0.65736       -1.82871       -0.38857
O         -0.59260       -2.56925       -0.56475
O          0.59460       -0.98612        0.86942
O          1.90463       -2.57015       -0.50449
O          0.75981       -0.72392       -1.56895
H          0.06127       -0.03518       -1.45303
H         -2.14293       -2.47135        1.44827
H         -3.17639       -1.48181        2.50754
H         -4.42549       -2.90122        0.77294
H         -4.81835       -1.17635        0.71020
H         -2.85293       -2.43337       -1.09188
H         -4.31102       -1.75882       -1.50703
H         -1.07448       -0.56430        1.10908
H         -2.27454       -0.37038       -0.01829
C         -2.84676       -1.63780        1.47951
C         -4.02141       -1.90759        0.53463
N         -2.10507       -0.44640        1.00142
N         -3.55618       -1.74540       -0.83431
H         -2.35637        0.46101        1.40796
H          4.24304        1.77684        0.75972
H          3.30698        1.16938        2.14895
H          5.15202       -0.43960        1.38766
H          3.53328       -1.14727        1.35860
H          5.22090       -0.74213       -0.87945
H          3.74203       -1.49176       -0.80533
H          1.84803        1.96137        0.22681
H          2.59712        0.73906       -0.66386
C          3.56724        0.99027        1.10385
C          4.17971       -0.39972        0.88630
N          2.33849        1.05070        0.28365
N          4.27066       -0.66280       -0.54574
H          1.64129        0.34747        0.62269
