38
2sa2eda_74.log	Energy: -1117821.7768707
S         -2.81804       -1.07079       -0.05709
O         -3.33403        0.13007       -0.75241
O         -2.35179       -2.15481       -0.93622
O         -1.84149       -0.72125        0.99141
O         -4.10683       -1.73659        0.67383
H         -4.58184       -1.03781        1.14264
S          2.28851        0.89630       -0.13753
O          2.02746        2.29763        0.20258
O          2.81057        0.06627        0.94771
O          1.15533        0.26307       -0.87486
O          3.43202        0.90658       -1.30391
H          4.21854        1.33713       -0.94207
H          0.16517        3.12945       -1.22394
H         -1.53505        3.29280       -1.72445
H         -0.64892        5.12744       -0.15936
H         -2.12647        4.33347        0.40657
H          0.56171        3.57955        1.34786
H         -0.64952        4.28031        2.23796
H         -0.39554        1.10747       -0.59674
H         -1.04463        1.85716        0.72083
C         -0.86928        3.12333       -0.87731
C         -1.05880        4.17938        0.21531
N         -1.12956        1.77747       -0.30520
N         -0.44560        3.68960        1.44261
H         -2.05449        1.36179       -0.53031
H          0.84886       -4.30192       -0.34897
H          1.33345       -3.26950       -1.71594
H          3.26735       -3.94062       -0.16699
H          3.08064       -2.20139       -0.39577
H          2.89148       -3.57525        2.04725
H          2.71592       -1.95566        1.75492
H         -0.65990       -2.41269       -0.49986
H          0.31035       -2.30093        0.86617
C          1.26232       -3.32985       -0.62797
C          2.61530       -3.08786        0.04778
N          0.31646       -2.29408       -0.15987
N          2.41786       -2.88633        1.47982
H          0.63399       -1.34322       -0.43915
