34
2sa2dma_105.log	Energy: -1048319.8020291
S         -1.39095        0.64974        0.29549
O         -2.42084        1.67341        0.42143
O         -0.19729        0.83553        1.14727
O         -1.94202       -0.73559        0.43512
O         -0.89962        0.77020       -1.22834
H         -3.42692       -0.72994        0.10306
H         -0.13270        0.16973       -1.35532
S          2.03806       -1.49609       -0.12209
O          3.44759       -1.72219       -0.32393
O          1.20406       -1.01198       -1.20582
O          1.35879       -2.89138        0.30316
O          1.87266       -0.60758        1.14330
H          1.97897       -3.38032        0.86309
H          0.99844       -0.06669        1.14936
N          4.04110        1.64200       -0.47869
C          2.77101        2.12540       -0.99326
C          4.25604        2.00336        0.91107
H          4.10408        0.63539       -0.58351
H          2.80158        3.21830       -1.07290
H          2.60219        1.72136       -1.99513
H          1.90439        1.86551       -0.36017
H          4.35149        3.09229        0.99484
H          3.43979        1.68293        1.58189
H          5.18929        1.55840        1.26733
N         -4.47693       -0.61371       -0.13528
C         -4.57296        0.12306       -1.42137
C         -5.13087        0.08162        1.00101
H         -4.86662       -1.54911       -0.24271
H         -4.09178        1.09163       -1.28260
H         -4.03882       -0.43870       -2.18760
H         -5.62165        0.24625       -1.69685
H         -4.62318        1.03729        1.13440
H         -6.19047        0.22823        0.78454
H         -5.00696       -0.52292        1.89949
