34
2sa2dma_81.log	Energy: -1048336.8223136
S         -2.12255       -1.47253       -0.09975
O         -2.81881       -2.71487       -0.25938
O         -3.16371       -0.36953        0.36165
O         -0.96737       -1.42116        0.79097
O         -1.67423       -0.95941       -1.53246
H         -1.48387        0.01669       -1.46273
S         -0.40413        2.23532       -0.21313
O         -0.29008        3.61300       -0.65168
O          0.77588        1.37401       -0.34932
O         -0.61038        2.28906        1.41902
O         -1.63548        1.54057       -0.70616
H         -1.03919        3.12947        1.62929
H         -2.74794        0.52016        0.23442
N          1.63548       -0.70028        1.39423
C          1.79185       -2.07333        1.91131
C          2.06504        0.35731        2.33046
H          2.18161       -0.60410        0.46966
H          1.21876       -2.18839        2.83232
H          1.41105       -2.77157        1.16655
H          2.84949       -2.26448        2.10317
H          1.47920        0.29344        3.24876
H          3.12450        0.22063        2.55608
H          1.89667        1.32133        1.85314
H          0.65029       -0.56070        1.12876
N          2.83402       -0.45905       -1.06701
C          2.01347       -1.32989       -1.91130
C          4.26512       -0.60206       -1.31631
H          2.53953        0.50318       -1.22438
H          2.23459       -2.37717       -1.67986
H          0.95686       -1.14354       -1.70646
H          2.19610       -1.17043       -2.98290
H          4.58057       -1.61767       -1.05654
H          4.53078       -0.42290       -2.36809
H          4.82194        0.10108       -0.69183
