28
2sa2ma_45.log	Energy: -999013.7312638
S         -1.89319        0.06718       -0.78252
O         -3.21916       -0.05353       -1.41710
O         -0.75589        0.04723       -1.71305
O         -1.84837        1.21033        0.17140
O         -1.80556       -1.26378        0.11510
H         -3.43014        1.44162        0.69806
H         -0.87708       -1.39767        0.42921
S          1.94131       -0.89624        0.29032
O          3.24882       -1.49933        0.40712
O          0.78045       -1.60868        0.81186
O          1.92371        0.52310        0.93700
O          1.73368       -0.60677       -1.25314
H          2.71403        1.10132        0.53025
H          0.78484       -0.33812       -1.43749
N         -4.43450        1.10959        0.67256
H         -5.09221        1.88234        0.73313
C         -4.64995        0.06821        1.70751
H         -5.64387       -0.36306        1.59281
H         -3.88981       -0.70038        1.56099
H         -4.53960        0.51493        2.69496
H         -4.43620        0.68265       -0.27794
N          3.88186        1.80871       -0.13547
H          3.79800        1.59306       -1.12609
C          5.15423        1.29266        0.39901
H          6.02933        1.71587       -0.10472
H          5.20975        1.52472        1.46436
H          5.15707        0.20686        0.29067
H          3.82730        2.81890       -0.04543
