28
2sa2ma_18.log	Energy: -999030.0887979
S          1.64393       -1.06560        0.23912
O          1.09113       -0.43790        1.62353
O          0.93503       -0.34123       -0.84120
O          3.07123       -0.72968        0.31188
O          1.28214       -2.49973        0.23111
H          2.62648        1.15720        0.31021
H         -0.23167       -2.39815       -0.64272
S         -1.68561        1.07024        0.14468
O         -2.03284        0.45230       -1.15077
O         -0.63462        2.09337        0.12207
O         -2.98566        1.94195        0.57533
O         -1.51044        0.04145        1.19914
H         -3.76885        1.38490        0.47583
H          0.10806       -0.33355        1.57567
N         -1.15880       -2.22497       -1.10071
H         -1.27578       -1.19146       -1.19160
C         -2.26234       -2.79128       -0.29245
H         -3.20994       -2.61565       -0.80105
H         -2.09773       -3.85881       -0.14877
H         -2.26035       -2.27340        0.66601
H         -1.12245       -2.61938       -2.03816
N          2.12070        2.03428        0.08114
H          1.09579        1.86157        0.19940
C          2.37383        2.41481       -1.32973
H          1.80322        3.31329       -1.56152
H          3.44003        2.58476       -1.47668
H          2.03034        1.58349       -1.94352
H          2.39974        2.76031        0.73756
