38
2sa2eda_49.log	Energy: -1117822.8103913
S         -2.24319        1.53916       -0.36785
O         -3.42131        1.00478        0.31776
O         -1.56055        2.63547        0.35319
O         -1.28265        0.52747       -0.85127
O         -2.78110        2.18544       -1.76528
H         -3.49140        2.80501       -1.55042
S          2.09571       -1.50240       -0.42672
O          3.54781       -1.45593       -0.28718
O          1.53129       -2.79239       -0.86048
O          1.33138       -0.90104        0.69060
O          1.72850       -0.43768       -1.63411
H          2.27755       -0.64658       -2.40124
H          2.09665        3.47608        1.16666
H          1.48306        2.29318        2.34226
H          3.99975        2.16818        2.07081
H          3.18278        0.65444        1.67266
H          4.63471        2.32898       -0.13184
H          4.15442        0.75583       -0.28806
H          0.17131        2.28031        0.27473
H          1.59935        1.88263       -0.56874
C          1.98231        2.40984        1.37811
C          3.33085        1.68800        1.34718
N          1.10910        1.83383        0.33077
N          3.86059        1.68876       -0.01405
H          0.97043        0.81649        0.49266
H         -1.45802       -3.62679        1.11876
H         -0.50711       -2.20713        1.62399
H         -2.93471       -2.29543        2.53231
H         -2.49027       -0.80090        1.71000
H         -4.49548       -2.60997        0.89908
H         -4.09944       -1.12507        0.29786
H         -0.29193       -2.57997       -0.71403
H         -2.00008       -2.48277       -0.87806
C         -1.38689       -2.53704        1.07025
C         -2.67255       -1.86845        1.55839
N         -1.17598       -2.17590       -0.35418
N         -3.73372       -2.03492        0.56489
H         -1.13100       -1.14006       -0.47768
