22
2sa2a_19.log	Energy: -949703.8595795
S         -1.95654       -0.30437       -0.13013
O         -2.29110        1.11431       -0.29476
O         -1.25896       -0.93547       -1.26696
O         -1.27198       -0.57448        1.16147
O         -3.40086       -1.01441       -0.05591
H         -3.28463       -1.96839       -0.16646
S          1.92912       -0.79050        0.06661
O          3.31262       -1.15714        0.13453
O          1.54715        0.61718        0.23386
O          1.36442       -1.28950       -1.31716
O          1.13361       -1.62988        1.13829
H          0.37889       -1.12951       -1.37304
H          0.19022       -1.29526        1.20344
N         -0.35829        2.42591        1.15213
H         -1.21593        2.07357        0.67341
H          0.21585        1.59783        1.35139
H          0.21083        3.00866        0.46981
H         -0.59158        2.92606        2.00424
N          1.32338        3.43059       -0.82510
H          0.87052        3.56637       -1.72393
H          1.81177        2.53558       -0.86050
H          2.01796        4.16265       -0.71828
