34
2sa2dma_11.log	Energy: -1048357.9764798
S          2.66037       -0.00008        0.12077
O          2.57200        1.23539        0.92843
O          2.57185       -1.23563        0.92829
O          1.77626        0.00005       -1.04932
O          4.15055       -0.00014       -0.53098
H          4.79531       -0.00030        0.18946
S         -2.59475        0.00013       -0.12114
O         -2.80758        1.24590       -0.85643
O         -2.80756       -1.24569       -0.85639
O         -1.29717        0.00016        0.62864
O         -3.65478        0.00012        1.12210
H         -4.54680        0.00002        0.74908
N          0.12519       -2.29787        0.10637
C          0.10712       -2.69260       -1.32102
C         -0.52835       -3.26224        1.01465
H          1.09859       -2.10101        0.41442
H         -0.93137       -2.74000       -1.65041
H          0.64989       -1.93088       -1.87976
H          0.59641       -3.66215       -1.42917
H         -1.57552       -3.35750        0.72461
H         -0.02438       -4.22729        0.94356
H         -0.46158       -2.88007        2.03320
H         -0.36936       -1.38621        0.21230
N          0.12558        2.29780        0.10630
C         -0.52799        3.26183        1.01494
C          0.10743        2.69290       -1.32096
H          1.09899        2.10089        0.41429
H         -1.57520        3.35710        0.72503
H         -0.46109        2.87934        2.03335
H         -0.02412        4.22695        0.94411
H         -0.93107        2.74039       -1.65030
H          0.59671        3.66248       -1.42891
H          0.65017        1.93132       -1.87993
H         -0.36888        1.38607        0.21196
