38
2sa2eda_35.log	Energy: -1117823.1802893
S         -2.43171        1.46705       -0.15737
O         -3.41158        0.46261        0.27097
O         -1.84949        2.25637        0.94867
O         -1.39827        0.95871       -1.08516
O         -3.23998        2.52241       -1.09513
H         -3.99986        2.84635       -0.59279
S          2.33654       -1.47907       -0.18123
O          1.63345       -2.43127       -1.06406
O          3.28158       -0.59702       -0.86793
O          1.41454       -0.78707        0.74940
O          3.21800       -2.38621        0.84696
H          3.87527       -2.86770        0.32654
H         -2.98734       -1.59364       -1.15318
H         -2.15693       -3.08278       -1.66537
H         -3.87410       -3.34458        0.23420
H         -2.26883       -3.99631        0.59946
H         -3.17320       -1.33376        1.47833
H         -2.79569       -2.63735        2.43710
H         -0.98798       -0.74909       -0.88836
H         -0.95836       -1.63261        0.50505
C         -2.29564       -2.37904       -0.84377
C         -2.82601       -3.07096        0.41669
N         -1.00296       -1.72044       -0.52507
N         -2.61596       -2.18299        1.55166
H         -0.14355       -2.20738       -0.83760
H          1.70107        3.75088        1.06126
H          1.92203        2.44422        2.25012
H          4.04497        3.03139        0.92231
H          3.57064        1.33196        0.83212
H          3.70356        3.14365       -1.33534
H          3.39267        1.51594       -1.33493
H         -0.08592        2.15693        0.77442
H          0.99361        2.07748       -0.50994
C          1.93946        2.69177        1.18693
C          3.28333        2.34561        0.53668
N          0.88615        1.91387        0.49898
N          3.15097        2.40888       -0.91585
H          1.03063        0.89104        0.63729
