28
2sa2ma_74.log	Energy: -998998.1953153
S         -2.30136       -1.02023        0.19401
O         -3.72398       -1.02972        0.40714
O         -1.41450       -0.36194        1.13817
O         -1.76743       -2.53656        0.16084
O         -2.03754       -0.50797       -1.25424
H         -2.41156       -3.08602       -0.30908
H         -1.06919       -0.21800       -1.39352
S          1.48656        0.22487       -0.67774
O          2.64388        1.05604       -1.04428
O          0.34155        0.32951       -1.60024
O          1.87285       -1.18117       -0.39182
O          1.01902        0.85452        0.72780
H          3.53944       -1.16335        0.03170
H          0.15571        0.45801        0.98033
N         -2.95794        2.57248        0.79151
H         -2.71750        1.80913        1.41422
C         -1.79617        2.97907        0.00553
H         -1.37666        2.20202       -0.64973
H         -2.06562        3.83527       -0.62023
H         -1.00200        3.30801        0.68161
H         -3.70230        2.23654        0.19019
N          4.38333       -0.56068        0.21246
H          5.24224       -1.01803       -0.08300
C          4.40423       -0.12658        1.63221
H          5.21051        0.59037        1.78246
H          3.44369        0.34380        1.84480
H          4.54236       -0.99609        2.27346
H          4.15091        0.24489       -0.40476
