34
2sa2dma_61.log	Energy: -1048340.9927792
S         -0.08875        2.33139        0.11821
O         -1.12720        2.39325       -1.06043
O          0.43719        3.65121        0.31718
O         -0.96817        1.96336        1.38715
O          0.82441        1.21389       -0.11613
H         -1.25591        1.01181        1.31808
H          1.90072       -1.24494        0.34753
S         -2.18399       -1.04393       -0.25268
O         -3.37353       -1.83839       -0.03645
O         -1.45590       -0.61582        0.97803
O         -1.05154       -2.06213       -0.89438
O         -2.31785        0.05504       -1.22638
H         -1.46787       -2.53299       -1.62891
H         -1.57045        1.50250       -1.18678
N          2.95158       -1.12813       -1.00658
C          3.76306        0.08764       -0.87011
C          2.04662       -1.06391       -2.16139
H          3.57153       -1.92505       -1.12042
H          3.09753        0.92960       -0.66698
H          4.45601       -0.02552       -0.03181
H          4.34170        0.30724       -1.77830
H          1.31775       -0.26816       -1.99244
H          2.58184       -0.86438       -3.10011
H          1.50641       -2.00904       -2.25214
N          1.24609       -1.31261        1.19041
C          1.80629       -0.52082        2.30506
C          1.01084       -2.73243        1.51937
H          0.34222       -0.89484        0.91085
H          2.75728       -0.95883        2.61420
H          1.95374        0.50032        1.95614
H          1.10563       -0.52834        3.14164
H          1.96038       -3.20663        1.77480
H          0.31985       -2.79817        2.36096
H          0.56190       -3.21487        0.65194
