40
2sa2tma_04.log	Energy: -1097678.4760535
S          0.17087       -1.91094       -0.03992
O          1.35387       -2.59372       -0.55379
O         -0.50678       -1.04237       -1.05745
O         -0.80609       -2.71631        0.69239
O          0.79824       -0.84344        1.03069
H          0.15533       -0.06803        1.14366
S         -0.30521        2.19949        0.07529
O          1.16296        2.26164        0.14707
O         -0.83320        1.14707        1.01788
O         -1.03660        3.44856        0.14453
O         -0.65737        1.60658       -1.39914
H         -0.41095        0.65280       -1.40774
N          3.27681       -0.02257        0.06958
C          4.05397       -1.26988        0.29313
H          4.16854       -1.42252        1.36667
H          3.49649       -2.10134       -0.13751
H          5.03369       -1.16037       -0.17688
C          3.02946        0.21793       -1.37950
H          2.51325       -0.65413       -1.78284
H          2.40712        1.10871       -1.46814
H          3.99098        0.36067       -1.87757
C          3.91154        1.15104        0.72354
H          3.25971        2.01299        0.58952
H          4.02997        0.93702        1.78625
H          4.88932        1.31633        0.26574
H          2.33778       -0.17502        0.49845
N         -3.06413       -0.43402       -0.00113
C         -3.67192        0.84795       -0.44244
H         -3.22151        1.66233        0.12432
H         -3.45874        0.99267       -1.50110
H         -4.74915        0.79974       -0.26931
C         -3.56848       -1.59738       -0.77421
H         -3.37721       -1.42091       -1.83236
H         -3.02104       -2.48195       -0.44775
H         -4.63957       -1.70707       -0.59227
C         -3.21544       -0.64258        1.46410
H         -2.67071       -1.54844        1.73179
H         -2.78114        0.21796        1.97065
H         -4.27913       -0.74137        1.69161
H         -2.04743       -0.38741       -0.20538
