38
2sa2eda_18.log	Energy: -1117823.8484551
S         -1.32587        2.56760       -0.08952
O         -2.61992        2.16557       -0.63794
O         -0.76101        1.62645        0.90392
O         -0.32448        2.96793       -1.10305
O         -1.59360        3.89575        0.81690
H         -2.08228        4.52928        0.27444
S          1.21687       -2.33263        0.06216
O          0.78550       -1.21860       -0.81107
O          2.54057       -2.17233        0.65877
O          0.15550       -2.72822        1.01435
O          1.33201       -3.56238       -1.00492
H          1.73961       -4.31074       -0.54860
H         -2.97886       -0.19185       -0.85140
H         -1.56611       -1.19730       -1.24308
H         -3.70554       -2.48640       -1.57823
H         -2.68979       -3.20631       -0.32172
H         -5.07696       -1.57299        0.15942
H         -4.73595       -3.07124        0.72531
H         -1.49260        0.07282        0.90814
H         -2.67823       -1.01967        1.44837
C         -2.42206       -1.09088       -0.57571
C         -3.30222       -2.33301       -0.56894
N         -1.89708       -0.88219        0.79921
N         -4.32582       -2.18190        0.46766
H         -1.15237       -1.58294        1.00267
H          2.49806        2.66586        0.69920
H          1.69237        1.22105        1.32591
H          4.20002        1.13390        1.68884
H          3.61987       -0.18779        0.66869
H          5.08665        2.17458       -0.24727
H          5.30731        0.59933       -0.63409
H          1.07672        1.96496       -0.98600
H          2.63303        1.41993       -1.42766
C          2.41164        1.58115        0.59049
C          3.76796        0.89526        0.70891
N          1.86001        1.31370       -0.76161
N          4.60630        1.29892       -0.42364
H          1.49667        0.33772       -0.82061
