34
2sa2dma_40.log	Energy: -1048351.7201853
S          1.60653        1.19342       -0.54411
O          1.53352       -0.18286       -1.09227
O          1.01463        2.21280       -1.40497
O          1.19507        1.25605        0.87306
O          3.20612        1.51256       -0.44339
H          3.52923        1.68557       -1.33817
S         -1.82693       -1.26933       -0.47927
O         -2.68897       -2.43151       -0.42778
O         -2.46260        0.00048       -0.91214
O         -1.03559       -1.01586        0.77170
O         -0.71714       -1.63884       -1.59341
H          0.60104       -1.40276        0.90744
H          0.00890       -0.97409       -1.57164
N         -1.53779        1.93679        0.71744
C         -1.63063        3.29910        0.15294
C         -2.28022        1.73191        1.97740
H         -1.89447        1.23453        0.01550
H         -1.26116        4.01992        0.88454
H         -1.01247        3.33504       -0.74407
H         -2.67308        3.51223       -0.08845
H         -1.89383        2.40828        2.74207
H         -3.33885        1.93037        1.80367
H         -2.14412        0.69263        2.27629
H         -0.54030        1.68728        0.86433
N          1.32846       -2.09158        1.23429
C          2.58967       -1.43522        1.65278
C          1.50321       -3.11895        0.17623
H          0.87865       -2.52259        2.04226
H          3.05984       -1.01009        0.76783
H          2.35473       -0.63068        2.34748
H          3.24195       -2.17888        2.11437
H          1.93235       -2.62675       -0.69510
H          2.16612       -3.90359        0.54490
H          0.52468       -3.52168       -0.08376
