22
2sa2a_38.log	Energy: -949694.3805281
S          1.17633       -0.60773       -0.20692
O          0.24502       -0.10329       -1.24404
O          2.32958       -1.33711       -0.78092
O          1.59587        0.43199        0.75039
O          0.39480       -1.73712        0.60877
H         -0.48249       -1.38456        0.87992
S         -2.80898        0.29349        0.21020
O         -2.01605       -0.50309        1.12853
O         -3.87537        1.13213        0.68854
O         -1.88481        1.16373       -0.69694
O         -3.41793       -0.79405       -0.81124
H         -1.01135        0.67502       -0.91896
H         -4.08671       -0.36565       -1.36462
N          4.40417       -0.31685        0.53271
H          3.66750       -0.83331       -0.03663
H          4.15117       -0.42133        1.51336
H          5.33698       -0.68277        0.36623
H          4.31627        0.72007        0.27071
N          3.71115        2.26753       -0.14095
H          3.70603        2.48651       -1.13272
H          4.00052        3.10453        0.35469
H          2.74827        2.04908        0.12848
