38
2sa2eda_70.log	Energy: -1117822.8948102
S         -2.04285       -1.85536       -0.15928
O         -1.19923       -0.98642        0.69185
O         -3.16751       -1.17865       -0.80075
O         -1.23352       -2.69955       -1.06344
O         -2.67652       -2.87621        0.94590
H         -3.27998       -3.47382        0.48417
S          2.08683        1.76214        0.02631
O          1.17335        1.05798       -0.91316
O          1.31801        2.66280        0.91401
O          3.05642        0.89031        0.67759
O          3.01402        2.73230       -0.89000
H          2.45519        3.42626       -1.26364
H          1.72805       -1.08924        1.22898
H          0.97275       -2.68563        1.09876
H          3.48597       -2.65308        1.69865
H          3.05864       -3.69023        0.32945
H          4.07771       -0.94782        0.01842
H          4.86713       -2.34467       -0.38487
H          1.15539       -0.67551       -0.83328
H          2.13124       -1.90533       -1.33988
C          1.72192       -2.02232        0.66741
C          3.11684       -2.64787        0.66414
N          1.32538       -1.69810       -0.73616
N          3.95668       -1.91555       -0.27815
H          0.45883       -2.19600       -1.01636
H         -1.53811        3.29647       -0.60394
H         -1.33756        1.68365       -1.31560
H         -3.73556        2.50617       -1.46480
H         -3.57559        1.00886       -0.54008
H         -4.07087        3.67435        0.56693
H         -4.77503        2.24517        0.94264
H         -0.34377        2.09762        0.95439
H         -1.95994        2.07545        1.50297
C         -1.82610        2.24470       -0.51871
C         -3.34240        2.07747       -0.53452
N         -1.30859        1.74750        0.78009
N         -3.90011        2.68101        0.67875
H         -1.29333        0.70242        0.78702
