38
2sa2eda_47.log	Energy: -1117823.8540902
S          3.01018       -0.47000        0.14341
O          3.16863        0.66537        1.07873
O          2.77552       -1.75960        0.82891
O          2.06501       -0.21287       -0.94710
O          4.44119       -0.61738       -0.61418
H          5.12267       -0.76566        0.05529
S         -2.44145        0.44494        0.26627
O         -2.76476        1.87019        0.32006
O         -2.84692       -0.25458       -0.95263
O         -1.03621        0.14559        0.66914
O         -3.25609       -0.26429        1.49838
H         -4.18379       -0.00109        1.42812
H         -0.07354       -4.32305        0.13765
H         -0.65784       -3.39284        1.53794
H         -2.51141       -4.31315       -0.00122
H         -2.58719       -2.58008        0.31155
H         -2.24305       -3.80032       -2.20239
H         -2.34990       -2.19056       -1.83375
H          1.15771       -2.24558        0.30027
H          0.14262       -2.25303       -1.04907
C         -0.61052       -3.42317        0.44758
C         -2.00410       -3.36087       -0.18680
N          0.16929       -2.25789       -0.02339
N         -1.88200       -3.06437       -1.61144
H         -0.27065       -1.36107        0.27255
H          1.82163        3.54947       -0.68702
H          1.35609        2.01825       -1.46991
H         -0.14802        4.05712       -2.03527
H         -1.00653        2.63996       -1.44013
H         -0.93265        5.16702       -0.21134
H         -1.73895        3.80378        0.25817
H          1.78984        1.75471        0.89511
H          0.52742        2.88373        1.19770
C          1.03676        2.79367       -0.77277
C         -0.30224        3.42698       -1.15361
N          0.89281        2.16524        0.56411
N         -0.83675        4.17946       -0.01792
H          0.19190        1.39708        0.54444
