38
2sa2eda_29.log	Energy: -1117822.8545994
S         -2.51974       -1.40489       -0.26139
O         -3.27851       -0.29636       -0.83798
O         -1.82765       -2.26064       -1.24595
O         -1.62611       -1.00799        0.85638
O         -3.59037       -2.36787        0.49900
H         -4.25122       -2.64587       -0.14960
S          2.35624        1.28963       -0.41444
O          2.05906        0.32314       -1.49407
O          2.08533        2.68231       -0.75140
O          1.79499        0.84165        0.88447
O          3.96021        1.16836       -0.13449
H          4.42016        1.65486       -0.83189
H         -0.40920        2.98465       -0.45867
H         -1.11426        1.46565       -1.04522
H         -2.78622        3.34655       -1.13569
H         -3.29876        2.01392       -0.09743
H         -2.26643        4.60496        0.81975
H         -3.61430        3.81022        1.29850
H          0.15044        1.43887        1.15436
H         -1.23914        2.22731        1.76735
C         -1.17586        2.22970       -0.26912
C         -2.57504        2.82806       -0.19265
N         -0.86979        1.59844        1.04426
N         -2.65683        3.68477        0.99369
H         -1.32054        0.65899        1.10820
H          1.41607       -3.85704        0.09357
H          2.26217       -3.16892       -1.31878
H          3.68486       -3.22633        0.78944
H          3.50147       -1.61128        0.10901
H          2.77541       -2.38405        2.67818
H          2.39827       -0.95245        1.93862
H         -0.04864       -2.24254       -0.92147
H          0.51287       -1.65556        0.50784
C          1.87398       -2.95605       -0.32042
C          2.96354       -2.42252        0.61315
N          0.81365       -1.93027       -0.43748
N          2.35899       -1.96390        1.85943
H          1.18562       -1.07697       -0.90546
