34
2sa2dma_71.log	Energy: -1048337.3720119
S          2.33870        0.59150        0.01986
O          2.56744        0.84294        1.41911
O          2.68836       -0.86285       -0.40164
O          1.05321        0.97248       -0.55104
O          3.50564        1.39492       -0.73969
H          3.47717        1.18537       -1.68407
S         -0.51428       -2.09565       -0.19109
O         -1.62605       -1.38081       -0.80394
O         -0.15881       -1.63078        1.16606
O         -1.07119       -3.60863       -0.03491
O          0.70088       -2.23263       -1.04513
H         -0.34049       -4.17444        0.24984
H          1.84314       -1.42532       -0.64805
N         -1.26597        0.89216        1.44877
C         -0.61474        1.95873        2.23098
C         -2.56629        0.44088        1.98118
H         -1.42578        1.21746        0.43172
H         -0.45929        1.62025        3.25691
H          0.34942        2.18276        1.77678
H         -1.25133        2.84611        2.22651
H         -2.43569        0.04594        2.99009
H         -3.26279        1.28177        1.99643
H         -2.94228       -0.34469        1.32488
H         -0.65259        0.05758        1.38568
N         -1.80830        1.58999       -1.15467
C         -1.32104        2.88839       -1.60976
C         -3.21157        1.35149       -1.48478
H         -1.24536        0.84454       -1.55995
H         -1.85729        3.68485       -1.08227
H         -0.25655        2.97096       -1.38234
H         -1.46869        3.03978       -2.68934
H         -3.84560        2.03495       -0.90916
H         -3.42430        1.50738       -2.55249
H         -3.46653        0.32190       -1.22630
