34
2sa2dma_24.log	Energy: -1048357.6035196
S         -1.66585       -1.08784       -0.91811
O         -1.54737        0.24146       -1.56598
O         -2.73898       -1.93822       -1.37115
O         -0.28148       -1.86893       -1.30298
O         -1.57651       -0.94391        0.57278
H          0.41994       -1.20879       -1.54340
H         -1.58622        0.67793        1.00148
S          1.72841        1.13421       -0.70429
O          2.88740        1.98569       -0.80854
O          1.79488       -0.17927       -1.39270
O          1.26292        0.91086        0.72150
O          0.51274        1.93623       -1.38441
H          1.19110       -0.75327        1.05234
H         -0.22331        1.29860       -1.57702
N          1.18037       -1.80034        1.14628
C          0.61935       -2.18525        2.45724
C          2.54291       -2.31336        0.87578
H          0.54094       -2.09852        0.39180
H          1.22723       -1.74296        3.24822
H         -0.40726       -1.82267        2.50164
H          0.62896       -3.27225        2.55057
H          3.22131       -1.93863        1.64339
H          2.52718       -3.40407        0.88928
H          2.85167       -1.94353       -0.10215
N         -1.30438        1.65343        1.27341
C         -1.33207        1.77628        2.74377
C         -2.12327        2.65444        0.55644
H         -0.31042        1.67505        0.96429
H         -2.34881        1.61184        3.10316
H         -0.66378        1.02614        3.16723
H         -0.99040        2.77130        3.03251
H         -3.14640        2.60886        0.93293
H         -1.70312        3.64725        0.72109
H         -2.11171        2.41024       -0.50433
