28
2sa2ma_40.log	Energy: -999016.3765990
S         -2.02691       -1.02675       -0.15602
O         -3.02614       -0.39619        0.70429
O         -1.85168       -0.45472       -1.49564
O         -0.72137       -1.18083        0.56210
O         -2.54692       -2.52856       -0.46094
H         -2.91844       -2.88748        0.35669
S          2.48402       -0.38017        0.07646
O          2.56735       -0.43358        1.51820
O          2.24545        0.90406       -0.56490
O          3.85749       -0.89029       -0.56548
O          1.51572       -1.46465       -0.47542
H          4.14918       -1.68733       -0.09935
H          0.55631       -1.38699       -0.06376
N         -0.37321        1.87706       -1.07972
H         -0.88120        1.04592       -1.43670
H         -0.78954        2.06554       -0.10440
C         -0.51158        3.04089       -1.97460
H         -0.01226        3.90130       -1.52838
H         -0.06059        2.82052       -2.94213
H         -1.57048        3.26208       -2.10954
H          0.61117        1.60052       -0.95114
N         -1.44835        2.11213        1.45933
H         -1.87128        2.98255        1.76635
C         -0.40814        1.68040        2.40820
H         -0.77878        1.58338        3.43470
H         -0.02406        0.70922        2.09124
H          0.41780        2.39621        2.39885
H         -2.19130        1.41131        1.42386
