28
2sa2ma_31.log	Energy: -999021.0118483
S          2.31862       -0.26064        0.06312
O          3.71568       -0.01915       -0.13912
O          2.12654       -1.78220        0.40523
O          1.59199        0.53787        1.05517
O          1.58536       -0.08364       -1.32945
H          0.00515        1.21613        1.14128
H          0.59875       -0.21674       -1.22281
S         -1.52110       -1.55480       -0.19862
O         -2.50704       -2.31794       -0.93106
O         -0.98920       -0.34030       -0.87278
O         -2.35068       -0.82954        1.05031
O         -0.45549       -2.32928        0.46070
H         -2.92531       -1.49196        1.45680
H          1.15699       -2.01645        0.48892
N         -0.92052        1.66424        1.27769
H         -1.20717        2.08559        0.33667
C         -0.86685        2.66827        2.35717
H         -1.84725        3.13011        2.47722
H         -0.56618        2.19122        3.28985
H         -0.13437        3.43051        2.09238
H         -1.57740        0.90014        1.47100
N         -1.53104        2.53084       -1.28632
H         -1.78934        1.60196       -1.61660
C         -0.28477        2.96223       -1.93775
H         -0.36707        3.03225       -3.02792
H          0.01029        3.93945       -1.54719
H          0.50827        2.24892       -1.70143
H         -2.29229        3.16080       -1.51824
