34
2sa2dma_09.log	Energy: -1048356.9647337
S          2.50553        0.11207        0.13682
O          2.21438        1.27295        1.00306
O          2.93722       -1.09413        0.84110
O          1.42397       -0.11164       -0.85224
O          3.74579        0.56441       -0.82132
H          4.54598        0.58945       -0.27953
S         -2.53984       -0.18707       -0.09070
O         -2.24561        0.87677       -1.07610
O         -2.49708       -1.54485       -0.67827
O         -1.78280       -0.03739        1.15412
O         -4.08504        0.03314        0.36690
H         -4.65384       -0.16217       -0.38997
N          0.06920       -2.40762       -0.14860
C          0.15188       -2.64309        1.31341
C          0.69343       -3.46364       -0.96992
H         -0.92674       -2.25854       -0.41420
H          1.20290       -2.65526        1.60280
H         -0.36883       -1.82407        1.80994
H         -0.33418       -3.59237        1.54465
H          1.75326       -3.52047       -0.71796
H          0.20485       -4.41806       -0.76776
H          0.57887       -3.20393       -2.02226
H          0.54546       -1.50706       -0.37751
N         -0.15007        2.35098       -0.01060
C         -0.86926        3.15633        0.99814
C          0.43673        3.12518       -1.12388
H          0.62055        1.82876        0.45108
H         -1.68526        3.69096        0.51002
H         -1.27342        2.47292        1.74472
H         -0.17408        3.86041        1.45778
H         -0.36213        3.63851       -1.66102
H          1.15141        3.84560       -0.72381
H          0.94768        2.42626       -1.78593
H         -0.82078        1.66281       -0.40904
