38
2sa2eda_281.log	Energy: -1117798.5166446
S         -3.34038        0.20120       -0.24115
O         -3.71419        1.41601       -0.92229
O         -2.56871        0.25185        0.98749
O         -4.68398       -0.57863        0.17788
O         -2.67271       -0.74910       -1.27331
H         -5.34267       -0.46336       -0.52200
H         -2.01968       -1.42713       -0.84048
S          0.19770       -1.65761        0.31165
O          0.67708       -0.58619       -0.57209
O         -1.02837       -2.32469       -0.19477
O          1.26786       -2.60134        0.69154
O         -0.20647       -0.98425        1.71304
H          2.71673       -1.89715        0.49804
H         -1.05908       -0.51414        1.59052
H          4.95114       -1.45977       -1.38196
H          3.23158       -1.77271       -1.74209
H          4.03980        0.65251       -2.20400
H          2.60861        0.49335       -1.17315
H          5.28191        1.22329       -0.28323
H          3.79695        1.82559        0.15387
H          4.32739       -2.32023        0.62167
H          3.93591       -0.69218        0.82122
C          3.92153       -1.20392       -1.11824
C          3.68429        0.31023       -1.22529
N          3.70882       -1.57586        0.31023
N          4.31944        0.96992       -0.08770
H          1.48847        1.27394        0.97609
H          1.45698        2.58021        2.15538
H         -0.81878        2.04355        1.33685
H         -0.37085        3.68808        0.85612
H         -0.21067        1.33722       -0.89200
H         -1.21859        2.62013       -1.06294
H          1.90112        3.13816       -0.65480
H          2.36226        4.03933        0.61923
C          1.30212        2.34740        1.09729
C         -0.14510        2.62670        0.69270
N          2.28608        3.08194        0.28927
N         -0.30246        2.33859       -0.73169
