34
2sa2dma_05.log	Energy: -1048361.0439155
S         -0.23056       -1.88606        0.02728
O         -0.14272       -0.90963       -1.09631
O         -0.45690       -1.00318        1.36001
O         -1.45478       -2.68776       -0.02564
O          1.03779       -2.61833        0.20423
H          2.31568       -1.43012        0.09392
S          0.23846        2.14229        0.15680
O         -1.21387        1.92508        0.34275
O          0.71086        3.50259        0.24106
O          1.00834        1.16440        1.01946
O          0.57356        1.65489       -1.34802
H          0.10501       -0.17854        1.33822
H          0.27851        0.71462       -1.39721
N         -2.92369       -0.15771       -0.04293
C         -3.38268        0.09319       -1.42638
C         -3.92820        0.10807        1.00811
H         -2.58521       -1.13341        0.02881
H         -3.61097        1.15396       -1.53396
H         -2.57192       -0.18348       -2.10009
H         -4.26684       -0.51159       -1.63288
H         -4.21339        1.15954        0.96179
H         -4.79905       -0.52977        0.85075
H         -3.47348       -0.10665        1.97473
H         -2.10633        0.47074        0.13614
N          2.87141       -0.54926        0.00003
C          3.23468       -0.36460       -1.42278
C          4.01673       -0.56217        0.93403
H          2.21208        0.21024        0.29781
H          3.95436       -1.13260       -1.70991
H          2.32836       -0.46343       -2.01834
H          3.66274        0.62886       -1.55922
H          4.68714       -1.38271        0.67490
H          4.54426        0.38994        0.86474
H          3.63721       -0.69790        1.94663
