34
2sa2dma_85.log	Energy: -1048333.9508616
S          0.09819        0.51115        0.45399
O          1.39436        1.03131        0.88721
O         -0.82891        1.53841       -0.07375
O          0.22942       -0.64492       -0.47303
O         -0.56026       -0.05919        1.80260
H          1.77950       -1.18102       -0.33768
H         -1.49679       -0.29605        1.62330
S         -3.88380       -0.07484       -0.13320
O         -5.31643        0.06395       -0.13866
O         -3.18082       -0.51944        1.05628
O         -3.47113       -1.16050       -1.25212
O         -3.26837        1.25077       -0.67042
H         -4.03839       -1.03594       -2.02632
H         -2.26796        1.33466       -0.45070
N          4.37539        0.74587       -0.68199
C          4.64002        1.38535        0.61299
C          3.57159        1.60479       -1.56162
H          5.26126        0.54533       -1.13741
H          3.68670        1.54306        1.12270
H          5.26677        0.73074        1.22517
H          5.14448        2.35569        0.50412
H          2.60277        1.77561       -1.08674
H          4.05022        2.57667       -1.74560
H          3.41178        1.10328       -2.51985
N          2.77220       -1.48322       -0.15433
C          3.12135       -2.60120       -1.04757
C          2.89726       -1.79263        1.28571
H          3.39086       -0.64158       -0.37523
H          2.47128       -3.45274       -0.83954
H          2.97988       -2.28529       -2.08178
H          4.16344       -2.88669       -0.88883
H          2.23588       -2.62304        1.53854
H          3.93259       -2.05753        1.51112
H          2.59809       -0.90548        1.84450
