38
2sa2eda_94.log	Energy: -1117821.3326504
S          2.20479        1.69960        0.13391
O          1.37651        0.85280       -0.75626
O          3.49045        2.10414       -0.40245
O          1.41565        2.76058        0.79273
O          2.52949        0.61379        1.35264
H          2.87960        1.11376        2.10201
S         -2.28504       -1.59797        0.26179
O         -1.28726       -0.94015        1.13238
O         -3.34149       -0.70901       -0.23387
O         -1.65058       -2.42798       -0.78467
O         -3.00475       -2.63309        1.29008
H         -3.74186       -3.05141        0.82494
H         -3.10256        1.46022        1.01856
H         -2.39823        3.04147        1.43792
H         -4.13194        3.06488       -0.45745
H         -2.57725        3.79856       -0.88413
H         -3.29699        1.02496       -1.57219
H         -3.03373        2.28579       -2.62211
H         -1.02818        0.78238        0.80482
H         -1.10187        1.55268       -0.65268
C         -2.48055        2.28199        0.65950
C         -3.06908        2.85195       -0.63508
N         -1.13819        1.71668        0.36798
N         -2.80731        1.90682       -1.71213
H         -0.32409        2.30631        0.62197
H          2.01709       -3.46706       -1.34259
H          1.88674       -2.00533       -2.35412
H          4.23728       -2.41265       -1.42215
H          3.55983       -0.83721       -1.01937
H          4.31817       -2.84700        0.80610
H          3.68703       -1.35435        1.12813
H          0.09216       -2.19028       -0.63004
H          1.31899       -2.10490        0.52381
C          2.09197       -2.37694       -1.34850
C          3.45848       -1.91200       -0.83864
N          1.05498       -1.84939       -0.43383
N          3.56816       -2.20507        0.59010
H          1.05135       -0.80879       -0.47568
