38
2sa2eda_05.log	Energy: -1117826.8222350
S         -0.21867        2.61848       -0.13283
O         -0.59959        1.70064       -1.21238
O         -1.13313        2.61102        1.02641
O          1.20352        2.54311        0.25856
O         -0.40656        4.07231       -0.83008
H         -0.20867        4.74920       -0.16874
S          0.03172       -1.84231       -0.74873
O         -0.02815       -1.12348        0.56571
O          1.41381       -1.78699       -1.28082
O         -0.60729       -3.14441       -0.75855
O         -0.88262       -0.94391       -1.73327
H         -0.64451        0.00494       -1.62602
H          3.34757        0.50525        1.86985
H          2.02343       -0.65998        1.59316
H          4.18277       -1.86241        2.05518
H          3.56934       -2.18831        0.42911
H          5.83093       -0.45241        1.08893
H          5.71906       -1.61330       -0.05890
H          2.15873        1.15673       -0.06394
H          3.64137        0.47924       -0.55712
C          2.97946       -0.29197        1.21814
C          4.00011       -1.41344        1.07053
N          2.73334        0.29018       -0.12366
N          5.20278       -0.88692        0.42171
H          2.22686       -0.42444       -0.70220
H         -4.19283        0.60231        0.37740
H         -2.90807        0.27393       -0.80973
H         -4.53440       -1.64642       -0.66287
H         -2.89842       -2.11820       -0.20921
H         -5.16205       -1.78395        1.59666
H         -3.97171       -2.90674        1.60705
H         -2.03187        1.11402        1.30410
H         -2.71174       -0.26823        2.06277
C         -3.34658       -0.04680        0.13463
C         -3.75719       -1.51433        0.09959
N         -2.32730        0.12501        1.19938
N         -4.17007       -1.92718        1.44438
H         -1.45068       -0.41471        0.96484
