38
2sa2eda_83.log	Energy: -1117824.1982791
S         -0.00335        2.43506       -0.26695
O         -0.13676        1.92731        1.13897
O         -0.96742        1.72429       -1.15111
O          0.02166        3.87393       -0.37716
O          1.46042        1.92391       -0.75311
H          1.38162        1.04264       -1.19348
S          0.23637       -1.52780       -1.09823
O         -0.00622       -1.36485        0.38748
O          1.40489       -0.69435       -1.47987
O          0.25259       -2.90391       -1.53452
O         -1.04335       -0.84812       -1.78396
H         -0.98002        0.13867       -1.65891
H         -4.02296        0.98839        0.79536
H         -3.02264        0.65911       -0.63015
H         -4.91991       -0.99333       -0.45531
H         -3.34626       -1.77859       -0.32943
H         -5.22179       -1.31281        1.86212
H         -4.34073       -2.64599        1.51938
H         -1.61188        0.97140        1.31336
H         -2.48589       -0.28414        2.09382
C         -3.36041        0.25719        0.32382
C         -4.03470       -1.10008        0.18364
N         -2.17285        0.09961        1.19928
N         -4.32342       -1.63349        1.51755
H         -1.48004       -0.57682        0.80349
H          3.72168       -0.09725        2.63079
H          2.44065       -1.30966        2.91059
H          4.38420       -2.17113        1.49231
H          2.81322       -2.30174        0.70459
H          5.01284       -0.86145       -0.24840
H          3.48003       -0.87043       -0.87525
H          1.55672        0.91136        2.09384
H          2.44084        0.67718        0.72727
C          2.95700       -0.71472        2.15412
C          3.56901       -1.58860        1.05317
N          1.97883        0.18848        1.50845
N          4.03362       -0.73663       -0.03434
H          1.18698       -0.35575        1.08817
