38
2sa2eda_231.log	Energy: -1117804.7674986
S          3.34742        0.20716        0.30932
O          2.76758        0.93273        1.45447
O          3.04799       -1.25162        0.31536
O          3.10247        0.84444       -0.98293
O          4.93762        0.27184        0.61711
H          5.38264       -0.33288        0.00797
S         -0.32459       -1.86307       -0.51293
O         -1.23218       -2.74440       -1.21940
O         -0.09844       -0.53230       -1.08731
O         -0.85921       -1.64338        0.95844
O          1.02176       -2.58439       -0.30027
H         -1.89271       -1.76938        0.94978
H          1.81777       -1.96215       -0.06928
H          0.80282        3.64818       -0.33092
H          1.13683        2.31017       -1.45501
H         -1.00681        3.57297       -2.05808
H         -1.28387        1.86757       -1.69880
H         -2.02579        4.12525       -0.02429
H         -2.81964        2.69635       -0.26015
H          1.29431        1.63275        0.91831
H         -0.38070        2.01939        1.02435
C          0.43102        2.69576       -0.71791
C         -0.99294        2.82542       -1.25604
N          0.38788        1.73438        0.40907
N         -1.90168        3.12755       -0.14973
H          0.16809        0.79855        0.01786
H         -3.20157       -0.37006       -0.76383
H         -4.88695       -0.84067       -0.50888
H         -4.71912        0.01814        1.86343
H         -3.08117        0.58345        1.50715
H         -5.44217        1.48896        0.00432
H         -4.69658        2.33342        1.17999
H         -4.05254       -2.27784        1.31636
H         -3.33067       -2.65802       -0.11274
C         -3.92188       -0.68992       -0.00458
C         -4.06223        0.39051        1.06016
N         -3.42222       -1.93382        0.59763
N         -4.54570        1.63422        0.45967
