38
2sa2eda_145.log	Energy: -1117817.4917340
S          0.16394        2.25136       -0.53627
O          0.83688        1.40408       -1.54316
O         -1.16329        2.71443       -0.93154
O          0.22555        1.68488        0.83182
O          1.11916        3.56716       -0.38687
H          1.14176        4.01321       -1.24441
S          0.01892       -2.12551       -0.84975
O          0.34708       -3.50769       -1.13226
O         -1.31620       -1.64035       -1.26582
O          0.23010       -1.73511        0.59239
O          1.10794       -1.27382       -1.67131
H          1.62521       -1.74413        1.15886
H          0.88119       -0.30983       -1.66341
H         -3.42223        1.59065        1.17483
H         -3.09934        1.30733       -0.53966
H         -5.37076        0.42115        0.09345
H         -4.29340       -0.88606       -0.40825
H         -5.08981       -0.28663        2.33843
H         -5.03498       -1.72967        1.56736
H         -1.24761        0.62793        0.96894
H         -2.29466       -0.55623        1.57767
C         -3.28384        0.81597        0.41578
C         -4.46952       -0.13943        0.37264
N         -2.07644        0.03563        0.77126
N         -4.57327       -0.83322        1.65813
H         -1.80851       -0.60564       -0.01439
H          4.60492       -1.32098        1.08122
H          3.51502       -1.67965       -0.29286
H          4.18408        0.82121       -0.00383
H          2.47047        0.47368       -0.17823
H          3.74979        1.54957        2.12941
H          2.14934        1.47753        1.72698
H          2.85828       -2.57103        2.00929
H          2.54897       -0.93840        2.34544
C          3.61320       -1.14698        0.65431
C          3.32600        0.35194        0.48701
N          2.60590       -1.66976        1.61340
N          3.01432        0.94376        1.78936
