28
2sa2ma_25.log	Energy: -999023.5617707
S          0.81106       -1.57412       -0.34591
O          1.77352       -0.93896       -1.25919
O          0.59857       -0.79576        0.89700
O         -0.44146       -1.99333       -0.99687
O          1.51227       -2.92106        0.20673
H          1.60370       -3.54486       -0.52721
S         -2.53641        0.48085        0.25339
O         -3.80284        1.04750        0.60755
O         -1.57245        1.28365       -0.50217
O         -1.83302       -0.00785        1.58252
O         -2.80742       -0.84895       -0.54823
H         -0.91522       -0.34817        1.38721
H         -1.95032       -1.29334       -0.79457
N          1.14874        1.78055       -0.84844
H          1.65682        1.81189        0.08901
H          1.46697        0.90392       -1.29188
C          1.39214        2.97412       -1.67956
H          0.88129        2.86521       -2.63609
H          1.00812        3.85395       -1.16366
H          2.46356        3.08713       -1.84650
H          0.14086        1.64609       -0.65650
N          2.51978        1.41755        1.53813
H          2.63333        2.07920        2.29892
C          3.80884        0.81977        1.16276
H          4.30739        0.30533        1.99217
H          3.63801        0.09435        0.36288
H          4.47790        1.59807        0.78577
H          1.89034        0.68152        1.85488
