22
2sa2a_04.log	Energy: -949707.9394955
S         -2.42602        0.00223       -0.03980
O         -1.26189       -0.06639       -0.93939
O         -2.50108       -1.13010        0.89838
O         -2.55396        1.34116        0.58426
O         -3.76209       -0.19367       -0.93349
H         -3.86103        0.57485       -1.51153
S          2.40319       -0.00607       -0.18091
O          2.25857       -1.23880       -0.95596
O          2.25204        1.24755       -0.92611
O          1.57868       -0.02258        1.07148
O          3.90804       -0.00579        0.43423
H          4.53385       -0.01007       -0.30315
N          0.03582        2.21160        0.53971
H          0.26082        3.10989        0.95715
H          0.54869        1.44287        1.02012
H         -0.99488        2.01204        0.56373
H          0.39543        2.16739       -0.42015
N         -0.01404       -2.20900        0.51230
H          0.14125       -2.07804       -0.49144
H         -1.01536       -2.00108        0.73063
H          0.26916       -3.14191        0.79648
H          0.58808       -1.48365        0.95838
