38
2sa2eda_167.log	Energy: -1117814.9573676
S          1.28875        0.97191        0.97804
O          1.18334        1.36482       -0.43199
O          0.28989        1.61014        1.85373
O          1.03238       -0.62618        1.03061
O          2.67352        1.04099        1.51797
H          3.42398       -0.21375        0.92711
S         -2.29421       -1.92001       -0.13406
O         -2.94154       -2.63715       -1.21992
O         -3.19099       -0.99397        0.60310
O         -1.81895       -3.03529        0.96518
O         -1.00432       -1.27525       -0.47380
H         -2.58834       -3.57548        1.18895
H          0.21549       -0.87869        0.51141
H         -1.47456        2.74852       -0.86986
H         -1.41142        1.00448       -1.17488
H         -3.28068        2.06632       -2.48313
H         -3.89030        0.90718       -1.29531
H         -4.01615        3.82145       -1.06247
H         -5.19616        2.71495       -0.81865
H         -1.29877        1.63968        1.20379
H         -2.90190        2.20792        1.03737
C         -2.02243        1.80893       -0.76465
C         -3.40025        1.87912       -1.40859
N         -2.20094        1.54875        0.68732
N         -4.20409        2.88804       -0.71259
H         -2.56971        0.57650        0.81192
H          3.78891       -1.84247       -1.55736
H          2.43969       -0.73371       -1.17800
H          4.16320        0.39806       -2.61619
H          3.96705        1.16966       -1.04338
H          6.23721       -0.46152       -1.89977
H          6.22584        0.92524       -1.03386
H          3.30999       -1.88240        0.80010
H          4.80393       -1.13285        0.51804
C          3.50735       -0.91428       -1.05235
C          4.33384        0.26766       -1.54135
N          3.78734       -1.07588        0.40195
N          5.73803        0.05010       -1.18054
