40
2sa2tma_16.log	Energy: -1097668.8864350
S         -2.78056       -1.30094       -0.44083
O         -3.68216       -2.21674       -1.09914
O         -1.56784       -0.90191       -1.22233
O         -3.43248       -0.06182        0.09201
O         -2.22722       -2.08993        0.84545
H         -2.55237        1.17144        0.08789
H         -1.52097       -1.55296        1.26950
S          1.11088       -0.60455        0.81393
O         -0.13329       -0.43731        1.58641
O          2.23346       -1.24586        1.49639
O          0.79065       -1.55104       -0.42244
O          1.53813        0.71468        0.21121
H         -0.13078       -1.34608       -0.79053
H          3.01191        0.50653       -0.20496
N         -2.15117        2.17316        0.07330
C         -1.58125        2.44841        1.41315
H         -2.37830        2.36853        2.15351
H         -0.81677        1.69881        1.62171
H         -1.15578        3.45546        1.42483
C         -1.12510        2.24963       -0.99407
H         -0.25139        1.67273       -0.68830
H         -1.54296        1.82229       -1.90566
H         -0.85245        3.29826       -1.14649
C         -3.31986        3.02980       -0.22480
H         -3.71552        2.75427       -1.20265
H         -4.08636        2.85278        0.53017
H         -3.01763        4.08035       -0.21987
N          4.03107        0.31760       -0.50176
C          4.05165       -1.03055       -1.12747
H          3.73413       -1.75767       -0.38047
H          3.34111       -1.04289       -1.95410
H          5.06190       -1.24476       -1.48463
C          4.40424        1.37757       -1.46262
H          3.72873        1.33134       -2.31753
H          4.30595        2.34834       -0.97552
H          5.43489        1.22865       -1.79335
C          4.85222        0.35969        0.73256
H          4.76804        1.35298        1.17508
H          4.45018       -0.37908        1.42619
H          5.89467        0.14548        0.48394
