38
2sa2eda_66.log	Energy: -1117823.0487696
S         -0.88668       -1.82021       -0.38191
O         -0.44748       -1.06885        0.86121
O          0.16544       -2.72047       -0.83781
O         -2.23910       -2.35503       -0.24287
O         -1.07608       -0.64419       -1.47713
H         -0.30882       -0.02236       -1.45585
S          0.92141        2.25483       -0.17532
O          1.90474        1.98615        0.89748
O          0.89192        1.19646       -1.20032
O         -0.39293        2.67441        0.32939
O          1.50792        3.52137       -1.00950
H          1.48672        4.29444       -0.42963
H          2.59937       -2.17871       -0.55929
H          2.53567       -0.49983       -1.12099
H          4.90830       -1.34919       -1.09854
H          4.68412        0.00791        0.01054
H          4.87163       -2.80893        0.79778
H          5.74079       -1.53678        1.34792
H          1.24898       -1.02302        0.96042
H          2.78129       -1.19591        1.70364
C          2.91331       -1.15681       -0.33678
C          4.42140       -1.04059       -0.16468
N          2.26186       -0.75748        0.93735
N          4.82858       -1.81711        1.00877
H          2.27628        0.27843        1.04449
H         -3.19569       -0.85867        1.68321
H         -3.68541        0.66039        2.47173
H         -5.48559       -0.50823        1.04453
H         -5.20942        1.18778        0.61899
H         -3.95909       -1.05705       -0.83142
H         -5.07049        0.02799       -1.42235
H         -1.49990        0.30590        0.96326
H         -2.58690        0.75482       -0.21018
C         -3.51153        0.17259        1.51187
C         -4.75430        0.19090        0.61556
N         -2.38489        0.83605        0.80521
N         -4.33537       -0.11373       -0.74292
H         -2.20754        1.81753        1.01906
