38
2sa2eda_111.log	Energy: -1117823.2561113
S         -0.23406       -0.61051        2.19191
O         -0.77932        0.54104        1.36526
O          1.24480       -0.49497        2.21101
O         -0.89904       -0.77275        3.46047
O         -0.58564       -1.91132        1.32408
H          0.05705       -1.98932        0.56727
S          2.00855       -0.95566       -1.21753
O          1.36060        0.38830       -1.47803
O          0.95140       -1.92653       -0.83355
O          2.91883       -1.37122       -2.25472
O          2.89547       -0.71254        0.10182
H          2.32052       -0.76368        0.90782
H         -2.16818       -1.15750       -2.82048
H         -1.34290       -2.04277       -1.52129
H         -3.82465       -2.34717       -1.35479
H         -3.18139       -1.49655        0.04929
H         -4.72512       -0.29965       -2.12550
H         -4.87125       -0.08210       -0.51113
H         -0.44706        0.16584       -1.64344
H         -1.99917        0.84367       -1.47973
C         -2.03752       -1.23058       -1.73733
C         -3.37079       -1.40378       -1.02478
N         -1.40740        0.02960       -1.27538
N         -4.20385       -0.22487       -1.25892
H         -1.28181        0.03939       -0.24131
H          0.67800        4.01855        1.03206
H          1.86838        3.89175       -0.28692
H         -0.24656        4.30728       -1.35263
H          0.19059        2.63917       -1.65604
H         -1.39802        2.26413        0.40665
H         -1.99821        3.71114       -0.06465
H          2.16564        2.06724        1.25959
H          0.58065        1.57323        1.09413
C          0.98404        3.43255        0.16152
C         -0.14090        3.33117       -0.87217
N          1.37101        2.07218        0.62255
N         -1.44832        2.91816       -0.37114
H          1.58589        1.45429       -0.20293
