38
2sa2eda_227.log	Energy: -1117806.1521986
S          1.69504       -1.16369       -0.43195
O          2.84946       -1.90541       -0.92767
O          0.36926       -1.70497       -0.77052
O          1.80240       -0.87439        1.03855
O          1.82306        0.27056       -1.15023
H          3.15788       -0.49545        1.43937
H          1.00740        0.81991       -0.98537
S         -1.69493        1.16337       -0.43217
O         -2.84934        1.90505       -0.92797
O         -0.36915        1.70462       -0.77082
O         -1.80228        0.87424        1.03835
O         -1.82295       -0.27096       -1.15032
H         -3.15809        0.49584        1.43927
H         -1.00733       -0.82031       -0.98531
H         -6.17267        0.45490        1.13561
H         -4.96782        1.43081        0.22943
H         -5.83019       -0.56240       -1.08967
H         -4.07957       -0.53310       -0.87080
H         -5.93984       -2.37386        0.39310
H         -4.39636       -2.60936       -0.10703
H         -4.39244        0.71025        2.61503
H         -4.19452       -0.80519        1.92447
C         -5.17681        0.46070        0.68232
C         -5.02983       -0.66004       -0.34777
N         -4.17674        0.21138        1.75610
N         -5.02008       -1.95177        0.34464
H          6.17255       -0.45417        1.13603
H          4.96786       -1.43049        0.23006
H          5.83015        0.56229       -1.08968
H          4.07952        0.53296       -0.87088
H          5.93961        2.37426        0.39250
H          4.39619        2.60954       -0.10793
H          4.39223       -0.70903        2.61539
H          4.19409        0.80605        1.92415
C          5.17673       -0.46020        0.68265
C          5.02975        0.66015       -0.34786
N          4.17651       -0.21058        1.75622
N          5.01986        1.95213        0.34407
