34
2sa2dma_59.log	Energy: -1048341.9862522
S         -0.43844        2.06850        0.23162
O         -1.46972        3.06751        0.25568
O          0.95496        2.78098        0.30562
O         -0.47365        0.97028        1.19172
O         -0.45785        1.42089       -1.22681
H         -1.56560       -1.35254        0.15939
H          0.22386        0.68567       -1.26673
S          2.56118       -0.42658       -0.39256
O          3.66218       -1.07036       -1.07337
O          1.22609       -0.56795       -1.03957
O          2.26743       -1.30088        0.98118
O          2.81554        0.95115        0.07344
H          3.05779       -1.26807        1.53653
H          1.70005        2.10440        0.27754
N         -0.72338       -1.80886        0.65024
C         -0.38116       -3.07499       -0.02640
C         -0.98402       -1.93795        2.09631
H          0.04554       -1.14463        0.50063
H         -1.21406       -3.77371        0.07260
H         -0.18451       -2.86255       -1.07680
H          0.51942       -3.49309        0.42503
H         -1.84026       -2.59778        2.24881
H         -0.10160       -2.35498        2.58378
H         -1.19061       -0.94589        2.49569
N         -2.81767       -0.57240       -0.66864
C         -3.74249        0.01076        0.30683
C         -3.49016       -1.39621       -1.67189
H         -2.31846        0.18332       -1.13562
H         -4.21342       -0.79274        0.88301
H         -3.18480        0.65511        0.98952
H         -4.53529        0.60379       -0.16867
H         -3.94174       -2.26724       -1.18585
H         -4.28489       -0.85323       -2.20257
H         -2.76092       -1.75044       -2.40483
