34
2sa2dma_64.log	Energy: -1048341.0990793
S         -0.59223        2.07835        0.23580
O         -1.61418        3.08616        0.23269
O          0.74048        2.73040        0.75055
O         -0.82205        0.82486        0.95064
O         -0.27866        1.70897       -1.27720
H         -0.04966       -1.16820        0.15488
H          0.33820        0.92360       -1.29905
S          2.57139       -0.28288       -0.32685
O          3.72241       -0.67871       -1.10936
O          1.24639       -0.42776       -0.99742
O          2.39430       -1.42254        0.85712
O          2.69204        1.00383        0.38330
H          3.24869       -1.52232        1.29842
H          1.50263        2.08161        0.68021
N         -0.65362       -1.95583        0.43930
C         -0.65878       -2.06926        1.91227
C         -0.18199       -3.16818       -0.25930
H         -1.63880       -1.71810        0.10332
H          0.35583       -2.27054        2.25614
H         -1.00495       -1.12301        2.32550
H         -1.32757       -2.88171        2.20365
H          0.84760       -3.37169        0.03594
H         -0.82880       -4.00837        0.00088
H         -0.21489       -2.98620       -1.33344
N         -3.20434       -1.32889       -0.50884
C         -2.94761       -0.64086       -1.77980
C         -3.87994       -0.46315        0.46609
H         -3.79116       -2.13811       -0.69045
H         -2.24460        0.17900       -1.61345
H         -2.49846       -1.33931       -2.49110
H         -3.86145       -0.22304       -2.22343
H         -3.20790        0.35293        0.74055
H         -4.81130       -0.03603        0.06981
H         -4.11004       -1.03810        1.36706
