38
2sa2eda_182.log	Energy: -1117811.4040952
S         -1.80602       -1.49300       -0.70531
O         -0.78383       -2.37362       -1.28486
O         -1.62430       -1.20842        0.73159
O         -2.00951       -0.26824       -1.51302
O         -3.19684       -2.31237       -0.72860
H         -3.33603       -2.65886       -1.62098
S         -1.08586        2.22092        0.63430
O         -1.09598        3.54538        1.18105
O          0.17754        1.66089        0.14623
O         -1.67199        1.24151        1.72410
O         -2.13674        2.16644       -0.53883
H         -1.68432        0.29963        1.38915
H         -2.14015        1.25708       -0.95864
H          2.66546       -0.65256       -2.85916
H          1.16773        0.25094       -3.15603
H          3.04017        1.82802       -3.04681
H          1.94657        2.08089       -1.68324
H          4.59670        0.87291       -1.54714
H          3.91855        2.01315       -0.58952
H          0.74049       -1.28724       -1.41708
H          2.12013       -0.88542       -0.52438
C          1.97125        0.07923       -2.43553
C          2.67971        1.38770       -2.10641
N          1.38608       -0.50889       -1.21097
N          3.72853        1.16816       -1.11426
H          0.83782        0.20911       -0.71134
H          3.41424       -1.21826        2.77811
H          3.13271        0.18692        1.72661
H          1.19882       -0.27754        3.25185
H          0.76407       -0.31617        1.55526
H          0.83905       -2.57400        3.34993
H         -0.11840       -2.27442        2.04499
H          3.97929       -1.77690        0.52246
H          2.57866       -2.56346        0.91906
C          2.81232       -0.83794        1.93995
C          1.33176       -0.84714        2.32281
N          2.99456       -1.65085        0.72972
N          0.82961       -2.21762        2.40217
