38
2sa2eda_292.log	Energy: -1117794.6508913
S          0.20868       -1.84173       -0.37463
O          1.28596       -2.69761       -0.84748
O         -1.12677       -2.47579       -0.30518
O          0.54730       -1.13847        0.89859
O          0.08935       -0.68168       -1.49178
H          2.09183       -1.33809        1.26226
H         -0.75472       -0.19909       -1.34900
S         -3.26465        0.17885        0.17945
O         -4.61938        0.65329        0.08912
O         -2.27220        0.56655       -0.80869
O         -2.63331        0.69805        1.57121
O         -3.29488       -1.36587        0.34855
H         -3.30129        0.60919        2.26614
H         -2.39134       -1.80549        0.11999
H          4.92591       -1.37645        0.30424
H          3.46866       -1.96766       -0.56746
H          4.15753        0.40170       -1.26440
H          2.51942        0.27077       -0.62867
H          4.74499        1.58279        0.65914
H          3.10947        1.86901        0.78438
H          3.40153       -2.19096        1.93938
H          3.38890       -0.49322        1.94272
C          3.85960       -1.21847        0.12120
C          3.57654        0.20649       -0.35641
N          3.14639       -1.35379        1.42248
N          3.83538        1.14404        0.73398
H          0.24030        3.99787       -1.10390
H         -0.73215        2.60797       -1.55075
H         -0.74887        2.78318        0.83381
H          0.17222        1.33760        0.41742
H          1.41264        3.91094        1.09535
H          1.30553        2.62191        2.07770
H          2.19851        2.58556       -1.46579
H          1.21861        1.40156       -2.04579
C          0.21269        2.89917       -1.08277
C          0.18432        2.43095        0.37214
N          1.30470        2.40426       -1.90991
N          1.37932        2.89413        1.10151
