40
2sa2tma_25.log	Energy: -1097651.8866262
S          3.24519        0.44872       -0.54692
O          2.84723        0.36910        0.85113
O          4.52973        0.98575       -0.90954
O          3.03644       -0.89753       -1.26877
O          2.10307        1.41382       -1.18714
H          2.30850       -1.52361       -0.81732
H          2.33195        1.59166       -2.11054
S          0.19457       -1.76924        0.45421
O         -0.85624       -2.68220        0.83976
O          1.39639       -2.39147       -0.16990
O         -0.24486       -0.59459       -0.35020
O          0.72481       -1.12355        1.85112
H         -0.55913        0.75255        0.44179
H          1.58091       -0.68582        1.66101
N         -3.74866        0.10382       -0.78168
C         -3.90428       -1.17170       -0.08962
H         -2.92788       -1.63215        0.08045
H         -4.38655       -1.01169        0.88088
H         -4.52885       -1.87880       -0.66519
C         -5.03689        0.75014       -0.97399
H         -5.52013        0.91452       -0.00572
H         -4.89991        1.72250       -1.45917
H         -5.72060        0.14835       -1.60127
C         -3.06733       -0.09178       -2.05588
H         -2.93170        0.87355       -2.55687
H         -2.08428       -0.53419       -1.87866
H         -3.64074       -0.74798       -2.73575
N         -0.87857        1.61359        0.97058
C         -1.88738        1.13099        1.94797
H         -2.71849        0.70958        1.38092
H         -1.42303        0.36386        2.56875
H         -2.22237        1.97161        2.56052
C          0.29874        2.22023        1.63581
H          0.70777        1.50281        2.34556
H          1.05088        2.44803        0.88154
H         -0.01668        3.12859        2.15456
C         -1.48111        2.52282       -0.03318
H         -0.72734        2.75618       -0.78562
H         -2.32841        2.00040       -0.48185
H         -1.81246        3.43743        0.46460
