38
2sa2eda_187.log	Energy: -1117812.2387644
S          1.09736       -2.07663       -0.04265
O          0.58520       -3.41943       -0.18484
O          0.45232       -1.08625       -0.97251
O          0.61190       -1.61389        1.44404
O          2.56539       -1.90158       -0.04516
H          1.00674       -0.73602        1.61631
H          3.27039       -0.45853        0.04160
S          2.33085        1.45814        0.03429
O          2.78429        2.81805        0.01964
O          3.57240        0.50582        0.07149
O          1.39044        1.04003        1.09228
O          1.63025        1.14964       -1.34421
H         -0.50655        0.76637        0.56125
H          1.19084        0.22963       -1.29586
H         -1.79950       -2.81714        0.12396
H         -3.41160       -3.14022        0.73739
H         -3.65386       -2.53438       -1.53662
H         -4.27193       -1.16975       -0.59200
H         -1.53280       -1.24042       -1.67881
H         -2.79609       -0.48114       -2.40274
H         -3.23443       -1.33955        2.12906
H         -1.62526       -1.57699        1.92612
C         -2.74609       -2.33730        0.39337
C         -3.36164       -1.72027       -0.85889
N         -2.48777       -1.34335        1.44331
N         -2.42956       -0.78279       -1.50525
H         -0.62978        3.05773        0.29024
H         -0.81799        2.36209       -1.32188
H         -2.57138        4.08551       -0.91371
H         -3.30279        2.48740       -1.09983
H         -2.91301        3.87381        1.45062
H         -4.29081        3.24859        0.82976
H         -2.04938        1.13874        1.05976
H         -1.84108        0.40226       -0.42577
C         -1.29243        2.46205       -0.34392
C         -2.67300        3.09811       -0.44414
N         -1.41939        1.11663        0.25311
N         -3.28752        3.12141        0.88177
