22
2sa2a_07.log	Energy: -949709.6649896
S         -2.24827       -0.12052        0.18616
O         -2.27586       -1.52669        0.58533
O         -1.46187        0.01566       -1.11644
O         -3.47417        0.64698        0.17544
O         -1.30563        0.67424        1.25150
H         -0.44756        0.20102        1.34187
S          2.13744        0.03334        0.10023
O          2.27697       -0.65058       -1.18821
O          1.96995        1.49883       -0.01153
O          1.14000       -0.61060        0.98989
O          3.51287       -0.17834        0.92442
H          4.22222        0.28791        0.46084
N         -0.42169        2.45304       -0.85632
H         -0.88361        1.54689       -1.16116
H         -0.43073        3.15826       -1.58700
H         -0.93067        2.77273       -0.03203
H          0.55505        2.19805       -0.56845
N         -0.03646       -2.27802       -0.90967
H          0.70817       -2.50662       -1.56450
H          0.39475       -1.98303       -0.01519
H         -0.56889       -1.42528       -1.22333
H         -0.69645       -3.03619       -0.75464
