28
2sa2ma_80.log	Energy: -998999.3430427
S          2.49292       -0.91372       -0.08745
O          3.78580       -0.29513        0.09326
O          1.60379       -0.51451       -1.16273
O          2.76461       -2.47924       -0.35816
O          1.72653       -0.98309        1.27075
H          3.61616       -2.70954        0.03859
H          0.82560       -0.51760        1.23375
S         -1.47486        0.35134        0.11255
O         -2.58834        1.28364        0.37105
O         -0.59973        0.12385        1.27692
O         -1.95977       -0.92401       -0.49016
O         -0.60650        1.09346       -1.00003
H         -3.54308       -0.78544       -0.79169
H          0.26398        0.63702       -1.08689
N          1.86054        2.04236        0.64953
H          1.01725        2.41682        1.07001
C          2.31837        2.86729       -0.46286
H          2.56992        3.90513       -0.19699
H          3.20261        2.40155       -0.90664
H          1.53847        2.89625       -1.22930
H          2.56874        1.98011        1.37243
N         -4.48863       -0.31538       -0.64788
H         -4.15021        0.61952       -0.34480
C         -5.24459       -0.98278        0.43563
H         -6.16864       -0.44043        0.63400
H         -5.46393       -2.00955        0.14490
H         -4.61570       -0.98152        1.32549
H         -5.00749       -0.25004       -1.51993
