34
2sa2dma_23.log	Energy: -1048353.2504613
S          2.93624        0.00002       -0.03909
O          3.09937       -1.24349       -0.79113
O          3.09883        1.24341       -0.79146
O          1.67802       -0.00012        0.77797
O          4.06353        0.00041        1.13775
H          4.93365        0.00031        0.71608
S         -2.93624        0.00002        0.03874
O         -3.09877       -1.24316        0.79148
O         -3.09965        1.24374        0.79039
O         -1.67798        0.00007       -0.77819
O         -4.06353       -0.00090       -1.13814
H         -4.93366       -0.00081       -0.71651
N         -0.00004       -2.06252        0.00019
C         -0.45029       -2.86315        1.16001
C          0.45075       -2.86331       -1.15933
H         -0.75919       -1.41713       -0.30320
H          0.37883       -3.48422        1.50209
H         -0.77121       -2.18384        1.94795
H         -1.29867       -3.47865        0.86186
H          1.29924       -3.47847       -0.86081
H         -0.37809       -3.48472       -1.50148
H          0.77172       -2.18411       -1.94733
H          0.75867       -1.41639        0.30334
N         -0.00010        2.06252        0.00019
C         -0.45054        2.86295        1.16008
C          0.45039        2.86352       -1.15929
H          0.75879        1.41662        0.30327
H         -1.29919        3.47812        0.86204
H         -0.77113        2.18350        1.94804
H          0.37838        3.48431        1.50212
H         -0.37865        3.48471       -1.50135
H          1.29871        3.47891       -0.86076
H          0.77152        2.18447       -1.94736
H         -0.75909        1.41690       -0.30323
