38
2sa2eda_61.log	Energy: -1117823.8787827
S          0.65090        2.58243       -0.15834
O          1.72630        2.59860        0.85582
O          0.88820        1.51308       -1.16351
O         -0.71057        2.63059        0.36632
O          0.77451        3.98334       -0.96915
H          1.66562        4.04236       -1.33871
S         -0.43172       -1.70645       -0.47209
O         -0.09863       -0.95407        0.80074
O          0.74244       -2.41828       -0.97303
O         -1.67526       -2.46187       -0.34853
O         -0.80894       -0.53842       -1.51699
H         -0.14895        0.20127       -1.46951
H         -2.88199       -1.30356        1.62507
H         -3.61900        0.05682        2.50645
H         -5.21170       -1.29747        1.00345
H         -5.21325        0.44227        0.67612
H         -3.62724       -1.48619       -0.89521
H         -4.89505       -0.55311       -1.42783
H         -1.41345        0.19914        0.99152
H         -2.57029        0.50208       -0.16097
C         -3.37111       -0.33322        1.51855
C         -4.60402       -0.46690        0.61877
N         -2.38218        0.55852        0.85896
N         -4.14585       -0.62082       -0.75236
H         -2.39244        1.54183        1.12782
H          4.43500       -0.41701        1.36045
H          3.14031       -0.97634        2.44986
H          4.31119       -2.86571        1.17603
H          2.56248       -2.80292        0.92060
H          4.52523       -2.54225       -1.06359
H          2.87992       -2.43095       -1.22363
H          2.46879        0.93525        0.91783
H          2.72556       -0.13924       -0.33295
C          3.45972       -0.90751        1.40787
C          3.50419       -2.27931        0.72584
N          2.49531       -0.06922        0.66633
N          3.68999       -2.09691       -0.71045
H          1.51436       -0.42507        0.76713
