38
2sa2eda_283.log	Energy: -1117798.6832233
S          1.86610       -1.01671        0.48069
O          2.95733       -1.58484        1.28398
O          0.76853       -0.40718        1.24585
O          2.41011       -0.06651       -0.55318
O          1.27496       -2.25331       -0.32338
H          3.92658       -0.17973       -0.48257
H          0.44997       -1.98117       -0.80859
S         -1.96241       -0.51421       -0.95922
O         -3.37660       -0.95885       -1.12358
O         -0.97746       -1.45442       -1.50394
O         -1.79823        0.88532       -1.39717
O         -1.79645       -0.51919        0.64325
H         -3.65798        1.81965       -1.37803
H         -0.83281       -0.44887        0.89056
H         -6.23572        1.13353        1.23738
H         -5.09921        1.46902        2.52720
H         -4.52187        2.90909        0.67191
H         -3.23595        1.69135        0.85780
H         -4.21912        0.37411       -0.92507
H         -5.33047        1.66247       -1.21652
H         -5.10291       -0.91180        0.79108
H         -3.89787       -0.55647        1.81637
C         -5.18534        1.01462        1.53379
C         -4.28837        1.84258        0.60735
N         -4.88549       -0.39730        1.63689
N         -4.42472        1.42330       -0.81903
H          5.40291        1.90526       -1.39730
H          5.89666        2.90682       -0.03256
H          6.57529        0.74189        0.62215
H          5.02993        0.98145        1.47601
H          5.51760       -0.67790       -0.90819
H          4.78088       -1.09644        0.54198
H          3.64882        3.45896       -0.57379
H          3.12568        1.92135       -0.30753
C          5.18948        2.12794       -0.33477
C          5.50032        0.88690        0.49535
N          3.84360        2.60349       -0.06831
N          4.94182       -0.34210       -0.13966
