28
2sa2ma_05.log	Energy: -999034.7036029
S         -2.18900       -0.16209       -0.19626
O         -2.05057       -1.56971        0.23134
O         -2.09580        0.82329        0.89052
O         -1.34076        0.17316       -1.35866
O         -3.72248       -0.00762       -0.69222
H         -3.88938       -0.66747       -1.37930
S          2.05924        0.15253       -0.45416
O          3.38438       -0.42785       -0.45873
O          1.36543        0.11500        0.88067
O          1.91558        1.51026       -1.03004
O          1.18094       -0.83716       -1.38508
H          0.60542        2.23679       -0.34086
H          0.26986       -0.46766       -1.48392
N          0.32810       -2.26186        1.40646
H          0.21376       -2.46424        2.39677
H         -0.61646       -2.11711        0.98608
C          1.09143       -3.32051        0.70228
H          1.19037       -3.01853       -0.33982
H          2.08310       -3.40229        1.14657
H          0.56073       -4.26949        0.77844
H          0.81330       -1.32043        1.29606
N         -0.12449        2.68612        0.27635
H         -0.58406        3.42871       -0.24583
C          0.52476        3.18292        1.51102
H         -0.22745        3.60005        2.18056
H          1.01935        2.33084        1.97600
H          1.26468        3.93883        1.24953
H         -0.84317        1.96563        0.50463
