38
2sa2eda_33.log	Energy: -1117824.7785371
S          1.02107        1.98813        0.64591
O         -0.19064        1.53098        1.36123
O          2.22448        1.21650        1.01195
O          0.81998        2.13964       -0.80383
O          1.28984        3.50777        1.13696
H          1.40262        3.50170        2.09759
S         -1.25667       -1.84234        0.84595
O         -0.61922       -1.39307       -0.46423
O         -2.58118       -1.22794        0.97141
O         -1.12831       -3.26626        1.06817
O         -0.29822       -1.16875        1.96244
H         -0.33429       -0.18832        1.87569
H         -3.05214        1.96227       -2.40208
H         -2.26311        0.48755       -3.02222
H         -4.71484        0.14718       -2.41692
H         -3.61894       -0.91999       -1.53055
H         -5.36971        0.93142       -0.39300
H         -4.22131        0.02051        0.37708
H         -0.96494        1.67144       -1.20989
H         -2.24548        1.31065       -0.20021
C         -2.74206        0.94449       -2.15334
C         -3.93250        0.12246       -1.65230
N         -1.75375        1.02590       -1.05659
N         -4.39337        0.67239       -0.38198
H         -1.32502        0.08771       -0.85703
H          2.36926       -1.46546       -2.28051
H          2.17498        0.21350       -1.70997
H          4.57700       -0.27510       -2.27266
H          4.34804        0.12131       -0.56655
H          4.83359       -2.55806       -1.64609
H          5.55673       -1.80907       -0.38420
H          1.02774       -1.45605       -0.32001
H          2.58302       -2.07764        0.07834
C          2.63328       -0.75381       -1.49339
C          4.14340       -0.63480       -1.33065
N          2.05669       -1.25319       -0.22295
N          4.67777       -1.91819       -0.87470
H          2.14860       -0.50770        0.49243
