38
2sa2eda_164.log	Energy: -1117816.5282999
S         -0.78138       -1.86513       -0.50093
O         -0.36251       -1.35437        0.84242
O         -1.08075       -0.55552       -1.38186
O          0.24140       -2.66159       -1.16000
O         -2.13224       -2.47894       -0.41194
H         -2.90503       -1.59857        0.64556
S          1.05620        2.33783       -0.22948
O          1.30636        3.62710       -0.85048
O          1.95826        2.00302        0.89680
O         -0.45075        2.46607        0.44445
O          0.88538        1.18673       -1.14148
H         -0.53496        3.38129        0.74220
H         -0.33364        0.09909       -1.31940
H          2.77401       -2.14335       -0.52043
H          2.53723       -0.49777       -1.13093
H          4.98248       -1.08532       -1.08954
H          4.61477        0.26095       -0.00562
H          5.12321       -2.50051        0.82715
H          5.82060       -1.12389        1.36876
H          1.30255       -1.06545        0.95725
H          2.83862       -1.09666        1.71167
C          2.97773       -1.08779       -0.32688
C          4.46539       -0.81242       -0.16087
N          2.28910       -0.71722        0.93547
N          4.95381       -1.51989        1.02592
H          2.23170        0.32428        1.02320
H         -3.32204        1.08037        1.94034
H         -1.92582        0.57072        0.95529
H         -3.55813        1.92497       -0.39535
H         -3.36734        0.28651       -1.01270
H         -5.68751        1.33132        0.42973
H         -5.63665        0.34769       -0.87408
H         -2.99549       -1.24110        2.28652
H         -4.36273       -1.02427        1.32000
C         -3.00399        0.47944        1.08288
C         -3.76272        0.87090       -0.17773
N         -3.34017       -0.94358        1.37698
N         -5.18453        0.55864        0.00726
