34
2sa2dma_91.log	Energy: -1048333.1813028
S          2.73291       -0.79243       -0.25439
O          4.00964       -1.02026       -0.87941
O          1.50178       -0.79467       -1.03595
O          2.49276       -1.98905        0.81582
O          2.80415        0.47202        0.62643
H          3.35301       -2.25309        1.17203
H          1.84708        0.90845        0.80401
S         -0.22770        2.10521       -0.05136
O          0.55711        1.38348        1.02088
O         -0.29517        3.53672        0.09388
O          0.59093        1.84605       -1.41188
O         -1.52802        1.40075       -0.20405
H          0.80664        0.89459       -1.48746
H         -1.56254        0.08509        0.78216
N         -3.16983       -1.71890       -0.94527
C         -2.07193       -1.59528       -1.91263
C         -4.18507       -0.67699       -1.13406
H         -3.60170       -2.63261       -1.04123
H         -1.57724       -0.63219       -1.75764
H         -1.34091       -2.39105       -1.75054
H         -2.42120       -1.63867       -2.95338
H         -3.72145        0.30033       -0.96771
H         -4.61515       -0.68335       -2.14519
H         -4.99151       -0.81345       -0.40836
N         -1.81524       -0.79613        1.29616
C         -2.60386       -0.42585        2.48502
C         -0.59599       -1.57620        1.58469
H         -2.40957       -1.31001        0.58312
H         -1.98260        0.17386        3.15199
H         -3.46293        0.16542        2.16614
H         -2.94175       -1.32728        2.99993
H          0.06807       -0.98267        2.21298
H         -0.86769       -2.50674        2.08743
H         -0.09075       -1.79028        0.64366
