28
2sa2ma_72.log	Energy: -999000.8652050
S         -2.82784       -0.18893        0.20363
O         -3.59298        0.98402       -0.14949
O         -1.84255       -0.16059        1.26800
O         -3.88268       -1.31236        0.67138
O         -2.23501       -0.84381       -1.08437
H         -4.72644       -1.13968        0.23077
H         -1.23691       -0.98767       -1.01269
S          1.41233       -0.72719       -0.24992
O          1.97971        0.41640       -1.01418
O          0.28035       -1.38795       -0.91458
O          2.49101       -1.65830        0.16020
O          0.87840       -0.12715        1.13151
H          3.96109       -0.91187       -0.04545
H         -0.10050       -0.00490        1.10532
N         -0.69092        1.84015       -0.87163
H          0.19849        1.70774       -1.34288
C         -0.60308        2.88489        0.14189
H         -0.34139        3.88157       -0.24526
H         -1.56286        2.96120        0.66045
H          0.15080        2.59912        0.88157
H         -1.39620        2.06409       -1.56449
N          4.49642       -0.02071       -0.24435
H          5.33538       -0.19747       -0.79067
C          4.75702        0.70851        1.01898
H          5.21217        1.67437        0.80227
H          3.79905        0.85193        1.51898
H          5.41431        0.11256        1.65105
H          3.76923        0.46821       -0.80946
