38
2sa2eda_237.log	Energy: -1117803.9398764
S         -0.74955        2.33238       -0.05293
O         -0.10696        1.79200        1.14096
O          0.07029        2.28562       -1.27727
O         -2.12209        1.80151       -0.28929
O         -0.96198        3.90000        0.28941
H         -1.38377        4.32526       -0.46991
S         -2.46909       -1.59819       -0.01777
O         -3.21830       -2.72852        0.46258
O         -1.01682       -1.60932        0.06425
O         -2.73726       -1.39965       -1.59699
O         -3.06425       -0.31763        0.61710
H         -3.69066       -1.42738       -1.76433
H         -2.61980        0.56239        0.28142
H          1.93909       -2.08232       -1.69851
H          1.30500       -1.00067       -2.96188
H          3.72306       -1.05706       -3.20996
H          3.30833        0.51994       -2.56273
H          3.96525       -0.29268       -0.37873
H          4.39489       -1.73188       -1.02317
H          0.41618       -0.70946       -0.65183
H          1.88293       -0.09303       -0.18271
C          1.91972       -1.05096       -2.05921
C          3.34168       -0.54868       -2.31883
N          1.25907       -0.24020       -1.01050
N          4.28611       -0.74490       -1.23116
H          0.96550        0.69682       -1.33819
H          0.56482       -0.61427        2.14331
H          1.35538       -1.65467        3.32815
H          2.52997        0.38000        3.42571
H          3.59016       -0.70371        2.51750
H          1.86947        1.37846        1.36799
H          3.50375        1.32807        1.35294
H          2.41209       -2.79751        1.52583
H          0.85549       -2.60879        1.05797
C          1.49053       -1.16054        2.35485
C          2.63727       -0.16152        2.47572
N          1.71645       -2.10804        1.25870
N          2.67191        0.74651        1.32169
