38
2sa2eda_184.log	Energy: -1117812.0258316
S          1.43648       -1.57055       -0.81266
O          2.56469       -0.73339       -1.25228
O          1.18672       -1.49196        0.63931
O          0.22546       -1.40168       -1.64061
O          1.88182       -3.12099       -1.01476
H          1.97481       -3.28054       -1.96403
S         -1.67852        1.77646       -0.78305
O         -0.75989        1.34008        0.30547
O         -1.30670        3.02006       -1.42617
O         -1.61398        0.57437       -1.87804
O         -3.09861        1.67935       -0.34702
H         -0.78083        0.05316       -1.81400
H         -3.39616        0.14055       -0.18098
H          2.94546        2.84574        1.51034
H          2.30676        1.72654        2.74408
H          4.79932        1.48619        2.35344
H          3.90515       -0.01006        2.07356
H          5.58940        1.04767        0.27904
H          4.25829        0.21454       -0.21731
H          0.89595        1.68777        0.68038
H          2.26717        1.25291       -0.16812
C          2.77304        1.79686        1.75877
C          4.07839        1.00494        1.68682
N          1.83232        1.24245        0.76205
N          4.57987        1.01756        0.31873
H          1.61712        0.24080        0.94411
H         -2.48014       -2.64053        0.51431
H         -1.44256       -1.28289        0.02842
H         -1.47615       -1.53657        2.51460
H         -2.14160        0.01283        1.99349
H         -3.66075       -2.25394        3.04642
H         -3.84305       -0.65740        3.34788
H         -3.66272       -1.27760       -1.04661
H         -4.34196       -1.10330        0.48793
C         -2.34911       -1.55586        0.56610
C         -2.32403       -1.06548        2.00490
N         -3.52307       -0.92340       -0.10286
N         -3.62723       -1.33233        2.62457
