34
2sa2dma_49.log	Energy: -1048347.0498708
S          1.30857        1.07801        0.71654
O          1.05238        0.71181       -0.69209
O          0.52030        2.24121        1.15856
O          0.84788       -0.17501        1.59898
O          2.76174        1.18187        1.01567
H          3.35423       -0.12584        0.31419
S         -1.99864       -1.67684       -0.10659
O         -2.76053       -2.89258       -0.31314
O         -2.11328       -0.64706       -1.15593
O         -2.68058       -0.87065        1.16911
O         -0.59805       -1.91072        0.33438
H         -2.66642       -1.45676        1.93727
H          0.22412       -0.77271        1.08486
N         -1.72247        1.93779       -0.48228
C         -1.35425        2.67216       -1.71026
C         -3.03168        2.30626        0.09342
H         -1.74314        0.91266       -0.71014
H         -1.31336        3.74134       -1.49578
H         -0.37470        2.31339       -2.02572
H         -2.09858        2.46983       -2.48188
H         -3.01652        3.35650        0.38954
H         -3.80777        2.13572       -0.65401
H         -3.21731        1.66680        0.95596
H         -0.96703        2.08200        0.22010
N          3.68074       -0.95955       -0.27490
C          3.86349       -0.47109       -1.66473
C          2.69957       -2.07512       -0.16353
H          4.57637       -1.25416        0.11185
H          2.90399       -0.06851       -1.99101
H          4.61184        0.32138       -1.66253
H          4.18156       -1.29586       -2.30457
H          1.75463       -1.75170       -0.60141
H          3.08943       -2.94771       -0.69009
H          2.54016       -2.29698        0.89078
