22
2sa2a_43.log	Energy: -949695.0177891
S         -1.28812       -0.75762        0.20514
O         -0.57855        0.45391        0.73868
O         -2.51637       -1.04525        0.94517
O         -1.49669       -0.63960       -1.25728
O         -0.32781       -1.99460        0.46961
H          0.56804       -1.79310        0.11447
S          2.69587        0.20131       -0.23403
O          3.79112        0.67026       -1.04059
O          2.09769       -1.10072       -0.46580
O          3.17874        0.13659        1.30291
O          1.59671        1.30701       -0.22148
H          3.78270        0.87391        1.47127
H          0.70626        0.95156        0.15329
N         -4.03860        0.24641       -0.98874
H         -3.15246       -0.09267       -1.43174
H         -3.77446        1.14987       -0.46620
H         -4.79686        0.36733       -1.65259
H         -4.25138       -0.45811       -0.27772
N         -2.99345        2.32539        0.50142
H         -3.43706        2.46597        1.40446
H         -2.81939        3.24285        0.10252
H         -2.08397        1.89002        0.68593
