34
2sa2dma_33.log	Energy: -1048355.5540736
S         -0.42918        1.93512       -0.20549
O         -0.19646        1.01537        0.92930
O         -0.62847        0.96913       -1.49977
O         -1.72521        2.62360       -0.14655
O          0.75413        2.77690       -0.48183
H          2.06757        1.69985       -0.03435
S          0.46458       -2.19450       -0.27170
O          0.85574       -3.52804       -0.69265
O         -0.98201       -1.99052       -0.08766
O          1.15364       -1.98348        1.21130
O          1.09247       -1.07438       -1.03193
H          1.24164       -2.86270        1.60211
H          0.00950        0.21757       -1.44598
N         -2.84390       -0.01219        0.25922
C         -3.23049       -0.18886        1.67436
C         -3.81906       -0.51588       -0.72915
H         -2.64708        0.99138        0.08466
H         -3.35526       -1.25372        1.87383
H         -2.42549        0.21616        2.28713
H         -4.16244        0.34487        1.86642
H         -3.94761       -1.58855       -0.58174
H         -4.77011        0.00298       -0.60044
H         -3.41802       -0.32688       -1.72450
H         -1.94814       -0.52413        0.11447
N          2.65330        0.86275        0.19251
C          2.85525        0.79126        1.65610
C          3.89408        0.87886       -0.60776
H          2.07101        0.05526       -0.11395
H          3.42916        1.66145        1.97889
H          1.86968        0.78642        2.11939
H          3.38945       -0.12848        1.89630
H          4.49358        1.74673       -0.32897
H          4.45276       -0.03897       -0.42021
H          3.62829        0.93607       -1.66318
