38
2sa2eda_193.log	Energy: -1117812.9932127
S          1.57397       -1.49879       -0.51906
O          1.04033       -1.18825        0.83928
O          1.63538       -0.24378       -1.33515
O          2.81208       -2.25504       -0.52747
O          0.47189       -2.42607       -1.22314
H         -0.34920       -1.88482       -1.26606
S         -1.43052        0.87787       -1.19804
O         -0.94452        1.58623        0.02510
O         -1.51159       -0.58518       -0.98192
O         -2.71904        1.43809       -1.63531
O         -0.37374        1.12819       -2.34674
H          0.43692        0.58901       -2.09892
H         -4.54166       -0.28832        2.49926
H         -5.02135       -0.72540        0.84005
H         -3.39946       -2.38210        1.98808
H         -2.85302       -1.76838        0.41978
H         -1.63821       -1.27744        2.95074
H         -1.02879       -1.03510        1.44204
H         -4.10275        1.66099        1.36941
H         -2.62620        0.85405        1.36456
C         -4.18227       -0.44770        1.47972
C         -3.05115       -1.49104        1.45558
N         -3.61057        0.84613        1.01129
N         -1.84943       -0.90141        2.03533
H         -3.54810        0.95044       -0.02509
H          2.58025        1.58239       -0.56463
H          2.48743        3.11681        0.33389
H          4.76506        2.05161        0.40413
H          4.07863        2.30549        2.01178
H          4.00634       -0.31184        0.64823
H          4.83556        0.08807        2.00719
H          0.58694        1.61297        0.70911
H          1.57623        0.41563        1.24320
C          2.63906        2.03892        0.42412
C          3.97253        1.71726        1.09141
N          1.50452        1.46101        1.19082
N          4.01879        0.31117        1.45314
H          1.46180        1.82412        2.14060
