28
2sa2ma_77.log	Energy: -998999.6812891
S          1.47499        0.42122       -0.47586
O          2.61333        1.35553       -0.46097
O          0.30332        0.88527       -1.23523
O          1.89789       -0.95668       -0.85469
O          1.04612        0.34938        1.07093
H          3.50210       -1.06038       -0.56805
H          0.17017       -0.09875        1.13936
S         -2.41661       -0.92492        0.12331
O         -3.62305       -0.37095        0.69167
O         -1.23652       -1.16611        0.93340
O         -2.79992       -2.37839       -0.45696
O         -2.04378       -0.17425       -1.19313
H         -3.73766       -2.37189       -0.69421
H         -1.11795        0.23948       -1.16264
N         -1.63822        1.98714        1.02005
H         -2.31794        1.90700        1.76841
C         -2.12676        2.86530       -0.03982
H         -2.34415        3.89532        0.27999
H         -1.37886        2.90148       -0.83632
H         -3.03937        2.43563       -0.46172
H         -0.77469        2.34207        1.41603
N          4.40855       -0.64524       -0.19526
H          5.21638       -0.95076       -0.73166
C          4.52648       -0.92029        1.25732
H          5.38911       -0.39419        1.66493
H          3.61191       -0.56517        1.73314
H          4.62888       -1.99362        1.41206
H          4.20809        0.35926       -0.35724
