38
2sa2eda_65.log	Energy: -1117821.2907203
S          2.20914        1.41309       -0.52748
O          2.30257        0.30958       -1.50179
O          1.46776        2.58666       -1.02841
O          1.77964        0.97239        0.81004
O          3.73482        1.91893       -0.26823
H          4.08212        2.27307       -1.09827
S         -2.35170       -1.51819       -0.34843
O         -3.35518       -0.98809        0.57888
O         -1.58277       -0.45097       -1.04143
O         -1.47318       -2.57512        0.17449
O         -3.17952       -2.29436       -1.51312
H         -3.95761       -1.76510       -1.73146
H         -1.93311        3.84465        0.49031
H         -2.44108        3.12873       -1.05692
H         -4.19226        2.94387        0.82288
H         -3.74777        1.40908        0.06714
H         -3.31726        2.12137        2.77428
H         -3.12574        0.66664        2.00753
H         -0.17214        2.40888       -0.36911
H         -0.87470        1.77736        1.02598
C         -2.21213        2.91451       -0.01109
C         -3.37853        2.22085        0.70048
N         -1.04035        2.01251        0.04030
N         -2.91859        1.66046        1.96770
H         -1.24369        1.10294       -0.43393
H          1.85533       -3.55972        0.86724
H          2.33936       -3.28481       -0.82738
H          4.23985       -2.94518        0.78983
H          3.87198       -1.47454       -0.11589
H          3.92986       -1.66549        2.61688
H          3.13602       -0.47266        1.79950
H          0.18770       -2.17516       -0.05816
H          1.16361       -1.20096        0.87529
C          2.20752       -2.81578        0.15004
C          3.49228       -2.15836        0.65335
N          1.14962       -1.78364        0.02910
N          3.22619       -1.47754        1.91680
H          1.35431       -1.13346       -0.74866
