38
2sa2eda_135.log	Energy: -1117821.8304537
S         -1.06323       -1.71341        0.68843
O         -0.70967       -1.53693       -0.76461
O         -1.66649       -0.44404        1.18848
O         -1.81287       -2.91359        0.97560
O          0.34130       -1.86272        1.45016
H          0.79978       -0.98086        1.46657
S          1.06290        1.71194        0.68946
O          0.70905        1.54062       -0.76399
O          1.66554        0.44064        1.18533
O          1.81320        2.91072        0.98063
O         -0.34136        1.85938        1.45233
H         -0.79997        0.97752        1.46664
H          2.61975       -1.68722        0.29976
H          2.89958       -2.76143       -1.07804
H          4.97206       -1.53361       -0.31870
H          4.57919       -1.22034       -2.01199
H          3.85826        0.62377        0.16858
H          4.93465        0.89860       -1.05023
H          0.85675       -1.31988       -1.20928
H          1.85343        0.01500       -1.26357
C          2.89597       -1.71937       -0.75310
C          4.24415       -1.04368       -0.98247
N          1.82315       -0.99762       -1.48594
N          4.09967        0.38944       -0.79095
H          1.93307       -1.09118       -2.49398
H         -2.61784        1.68661        0.30116
H         -2.89752        2.76312       -1.07476
H         -4.97045        1.53618       -0.31601
H         -4.57909        1.22564       -2.01019
H         -3.85721       -0.62341        0.16590
H         -4.93700       -0.89433       -1.05075
H         -0.85598        1.32471       -1.21346
H         -1.84821       -0.01289       -1.26163
C         -2.89464        1.72053       -0.75147
C         -4.24353        1.04664       -0.98122
N         -1.82262        0.99945       -1.48618
N         -4.10055       -0.38697       -0.79264
H         -1.93674        1.09007       -2.49404
