34
2sa2dma_80.log	Energy: -1048335.3399291
S         -0.11152       -0.03883        0.86292
O          0.68366       -1.26410        0.60426
O         -1.36336       -0.28852        1.58079
O          0.74174        0.87001        1.86421
O         -0.30855        0.75471       -0.37925
H          1.65026        0.97342        1.50357
H         -1.89622        1.23511       -0.50363
S          3.79449       -0.04170       -0.28732
O          5.21080       -0.28717       -0.35878
O          3.24167        0.86928        0.69793
O          3.31250        0.57457       -1.69747
O          3.06838       -1.41812       -0.22646
H          3.81475        0.14835       -2.40647
H          2.09340       -1.33143        0.08416
N         -3.51904       -1.29604       -0.13572
C         -4.82456       -1.89316        0.12708
C         -2.79650       -1.95778       -1.22377
H         -2.93431       -1.33458        0.70052
H         -4.76136       -2.97222        0.32865
H         -5.28567       -1.40563        0.98962
H         -5.47682       -1.74780       -0.74023
H         -2.65841       -3.03284       -1.04539
H         -3.35087       -1.83363       -2.16038
H         -1.80984       -1.50026       -1.33694
N         -2.93886        1.36760       -0.49512
C         -3.38869        1.92345       -1.78207
C         -3.29971        2.17311        0.68847
H         -3.31075        0.36514       -0.37077
H         -2.93870        2.90570       -1.93758
H         -3.07567        1.25214       -2.58264
H         -4.47682        2.01440       -1.78329
H         -2.85922        3.16798        0.60023
H         -4.38646        2.25469        0.75836
H         -2.89768        1.67004        1.56858
