38
2sa2eda_38.log	Energy: -1117824.1926378
S          1.21935       -1.67374        1.10598
O          2.20222       -0.63384        1.50181
O          0.86135       -1.47706       -0.34403
O          1.53639       -3.03674        1.46588
O         -0.14333       -1.33142        1.90077
H         -0.35242       -0.37359        1.81155
S         -1.00284        2.18158        0.36157
O         -1.15282        1.16044        1.41754
O          0.20550        3.00783        0.50434
O         -1.20628        1.64187       -0.99620
O         -2.26566        3.18602        0.53668
H         -2.16032        3.65961        1.37343
H          3.51146        2.06820       -1.81839
H          4.19213        1.77648       -0.19371
H          4.95236        0.09622       -1.94758
H          4.17058       -0.63804       -0.54386
H          3.40744       -1.05743       -3.11368
H          2.38945       -1.24222       -1.82936
H          1.71682        2.14053       -0.14929
H          1.57817        0.81257       -1.13618
C          3.54361        1.37484       -0.97512
C          3.99593       -0.01413       -1.42923
N          2.17270        1.25777       -0.42787
N          2.99093       -0.58557       -2.32273
H          2.16734        0.60748        0.40183
H         -2.58760       -2.44231        0.32566
H         -2.58553       -0.76285        0.89278
H         -4.88502       -1.47418        0.14812
H         -4.25764       -0.13617       -0.81797
H         -4.41162       -2.93073       -1.67748
H         -4.92166       -1.58703       -2.45827
H         -0.75420       -1.39239       -0.73210
H         -2.02115       -1.47887       -1.88110
C         -2.74425       -1.40343        0.02567
C         -4.12253       -1.19872       -0.59120
N         -1.71892       -1.06695       -0.99227
N         -4.20379       -1.95168       -1.84417
H         -1.63444       -0.03379       -1.10092
