38
2sa2eda_262.log	Energy: -1117800.0265077
S          0.38217        2.26674        0.51158
O         -0.93067        1.65156        0.23588
O          0.39235        3.43253        1.37338
O          1.35910        1.19899        0.88672
O          0.88256        2.77278       -0.95862
H          1.30523        3.63412       -0.84173
S          3.38247       -1.03153       -0.58545
O          4.62755       -1.42825       -1.18482
O          2.12028       -1.32388       -1.24158
O          3.22653       -1.76369        0.85047
O          3.48578        0.47129       -0.20564
H          4.07369       -1.72295        1.31766
H          2.61051        0.83071        0.21059
H          0.21446       -2.52841        1.19633
H          0.26246       -0.86180        1.82147
H         -1.65726       -2.20182        2.82214
H         -2.22333       -0.81117        1.90156
H         -2.54661       -3.59038        1.19347
H         -3.42898       -2.27205        0.68879
H          0.41479       -1.14682       -0.65290
H         -1.22596       -1.58991       -0.58576
C         -0.32750       -1.58165        1.25236
C         -1.73467       -1.78761        1.81024
N         -0.46920       -1.06225       -0.13049
N         -2.49252       -2.62689        0.89048
H         -0.73365       -0.05690       -0.09990
H         -5.74115        0.19314       -1.60338
H         -5.93010        0.13524        0.15239
H         -4.32505        1.85781       -0.48860
H         -3.53153        0.60715        0.46703
H         -3.39099        0.75690       -2.45714
H         -2.20858        1.12913       -1.39774
H         -5.67161       -2.08010       -0.78444
H         -4.18479       -1.67861       -1.34632
C         -5.23102       -0.07691       -0.66288
C         -4.00198        0.80646       -0.50134
N         -4.86307       -1.49220       -0.61170
N         -3.01133        0.52148       -1.54374
