38
2sa2eda_273.log	Energy: -1117800.7139882
S         -0.78250        2.08365        0.34917
O         -0.56276        1.51877        1.67627
O          0.13408        1.56503       -0.68746
O         -2.20900        2.07330       -0.07160
O         -0.38748        3.65513        0.38784
H         -0.99503        4.10652        0.98991
S         -3.23688       -1.24681       -0.30147
O         -4.32712       -2.15376       -0.53682
O         -2.19806       -1.57948        0.65865
O         -2.38968       -1.03915       -1.66678
O         -3.83080        0.16167       -0.03985
H         -2.98827       -0.80973       -2.39230
H         -3.12054        0.91219        0.01350
H          2.15391       -0.22713        1.15062
H          0.78246       -0.67188        2.18332
H          2.76376       -2.29828        2.34417
H          1.26663       -3.08950        1.83383
H          3.48026       -2.28625        0.08233
H          2.77464       -3.78201        0.22659
H          0.42341       -0.11575       -0.30924
H          1.00601       -1.70980       -0.51432
C          1.39384       -0.99045        1.33963
C          2.03053       -2.36552        1.52947
N          0.53326       -1.05344        0.12680
N          2.59890       -2.78505        0.24938
H         -0.41678       -1.39404        0.34091
H          5.66208        0.74786       -1.24795
H          5.11987       -0.74627       -2.02417
H          3.50940        1.06629       -2.40611
H          2.78506       -0.23842       -1.46293
H          3.75128        2.28768       -0.32957
H          2.20969        1.74643       -0.38187
H          5.86772       -1.09685        0.27829
H          4.63740       -0.14521        0.79773
C          4.90276       -0.05037       -1.20708
C          3.52637        0.56818       -1.42547
N          4.92729       -0.78455        0.06086
N          3.18092        1.44754       -0.31096
