38
2sa2eda_129.log	Energy: -1117820.6619683
S         -1.09452        2.12689        0.14082
O         -0.54832        1.48266        1.36227
O         -0.05866        2.93221       -0.53611
O         -1.86630        1.23221       -0.71897
O         -2.22094        3.17711        0.65985
H         -1.79102        3.82844        1.23032
S          0.87530       -1.62515        0.90636
O          0.82072       -3.07423        0.92351
O          1.99214       -0.96404        1.59722
O          0.76641       -1.05800       -0.50275
O         -0.48615       -1.15791        1.61857
H         -0.69935       -1.22296       -1.19178
H         -0.53469       -0.16505        1.60600
H          3.49034        1.97191       -1.55157
H          4.04503        2.19487        0.12938
H          5.31405        0.39705       -0.94252
H          4.30947       -0.28759        0.34497
H          4.32708       -1.36562       -2.00126
H          2.85789       -1.15957       -1.31368
H          1.54636        2.13895       -0.16393
H          1.67729        0.55293       -0.60473
C          3.54983        1.51095       -0.56394
C          4.28269        0.17762       -0.65106
N          2.16032        1.30838       -0.08355
N          3.67248       -0.66658       -1.67266
H          2.13668        0.94607        0.87976
H         -2.99030       -3.07586       -1.43572
H         -1.73248       -2.99083       -0.16638
H         -3.99021       -2.15390        0.62945
H         -2.73569       -0.92035        0.71062
H         -5.06664       -0.86548       -0.93946
H         -3.96502        0.33733       -0.64391
H         -1.31903       -1.98988       -2.53880
H         -2.16178       -0.69639       -1.90231
C         -2.40997       -2.40841       -0.79441
C         -3.34163       -1.51330        0.02346
N         -1.59077       -1.52459       -1.67634
N         -4.08307       -0.64050       -0.88207
