38
2sa2eda_259.log	Energy: -1117805.2572886
S         -1.62218       -1.88424       -0.56309
O         -1.52790       -1.47103        0.86241
O         -1.92587       -3.27737       -0.78845
O         -2.36574       -0.91482       -1.39548
O         -0.03436       -1.65938       -0.99925
H         -2.68431        0.58293       -0.93845
H          0.04096       -1.50936       -1.95385
S         -1.70018        1.95302        0.39016
O         -1.96354        3.28809        0.84242
O         -2.86501        1.49807       -0.55260
O         -0.41815        1.64430       -0.24234
O         -1.82892        0.98935        1.65530
H          0.62357       -0.51703        0.43814
H         -1.82892        0.02611        1.36246
H          3.85711        1.01026       -2.13883
H          2.60885        2.01432       -2.85625
H          3.55115        3.16142       -0.94180
H          1.84987        2.76094       -0.62436
H          4.07600        1.12163        0.36176
H          3.31824        2.26571        1.23952
H          2.24143       -0.39087       -1.21875
H          1.00349        0.61792       -1.63144
C          2.84634        1.40735       -1.97580
C          2.84932        2.33585       -0.75865
N          1.92301        0.28477       -1.91009
N          3.18708        1.60238        0.48037
H          2.31546       -0.87929        2.81890
H          0.70315       -1.62182        2.71215
H          2.46479       -3.19851        1.96042
H          1.28273       -2.83368        0.69964
H          4.02123       -1.82532        0.79897
H          3.24026       -2.58243       -0.41683
H          0.44131        0.45376        1.74052
H          1.91731        0.45644        0.93070
C          1.55946       -1.27242        2.13236
C          2.10516       -2.41293        1.28232
N          1.11264       -0.15290        1.26757
N          3.11846       -1.92545        0.34598
