40
2sa2tma_01.log	Energy: -1097681.7572504
S          0.67476        1.90874       -0.08415
O          0.64558        1.22967        1.38035
O          1.73199        2.90167        0.00588
O          1.05746        0.75812       -0.99912
O         -0.68331        2.37087       -0.38236
H         -2.31711        0.08074        0.36216
S         -0.67468       -1.90847        0.08085
O          0.68288       -2.37290        0.37786
O         -1.73338       -2.89981       -0.00950
O         -1.05530       -0.75843        0.99743
O         -0.64549       -1.22800       -1.38286
H          0.02555        0.45097        1.34359
H         -0.02457       -0.45000       -1.34583
N          3.25362       -0.44818       -0.03841
C          3.52885       -1.68818       -0.80541
H          2.73932       -2.40650       -0.58290
H          3.52192       -1.44914       -1.86956
H          4.50784       -2.07693       -0.51547
C          4.21838        0.63772       -0.34647
H          4.23252        0.79693       -1.42482
H          3.87610        1.55335        0.13806
H          5.20999        0.34836        0.00865
C          3.16736       -0.71098        1.42232
H          2.90012        0.21904        1.92314
H          2.38483       -1.45217        1.58514
H          4.13618       -1.07798        1.77008
H          2.31797       -0.08148       -0.36147
N         -3.25358        0.44770        0.04181
C         -3.17205        0.70845       -1.41951
H         -2.38968        1.44900       -1.58590
H         -2.90689       -0.22236       -1.91998
H         -4.14184        1.07544       -1.76459
C         -4.21798       -0.63708        0.35494
H         -3.87893       -1.55331       -0.13073
H         -4.22699       -0.79571        1.43344
H         -5.21101       -0.34692        0.00450
C         -3.52531        1.68888        0.80817
H         -3.51439        1.45123        1.87260
H         -2.73627        2.40649        0.58172
H         -4.50523        2.07768        0.52146
