34
2sa2dma_76.log	Energy: -1048333.9566347
S          3.70613        0.04586        0.30105
O          5.09503        0.39211        0.45564
O          3.24699       -0.70781       -0.85087
O          3.27150       -0.86237        1.56139
O          2.86026        1.34018        0.47789
H          3.75147       -0.55057        2.34165
H          1.90773        1.24526        0.09524
S         -0.16023       -0.04252       -0.94438
O          0.54578        1.19308       -0.50972
O         -1.43088        0.22073       -1.61639
O          0.75885       -0.73201       -2.05335
O         -0.29026       -1.01130        0.17656
H          1.67078       -0.82118       -1.69806
H         -1.90475       -1.23582        0.41712
N         -3.70565        1.39352        0.75923
C         -4.04823        1.88265       -0.58278
C         -2.52709        2.07521        1.31089
H         -4.49408        1.55659        1.37930
H         -3.22726        1.63897       -1.26117
H         -4.95499        1.38186       -0.93335
H         -4.21553        2.96863       -0.60054
H         -1.66441        1.88877        0.66680
H         -2.67079        3.16180        1.38604
H         -2.30704        1.67948        2.30614
N         -2.94658       -1.28370        0.55933
C         -3.23186       -1.97896        1.82623
C         -3.56479       -1.90189       -0.63101
H         -3.27021       -0.26634        0.63167
H         -2.85460       -3.00176        1.77541
H         -2.73067       -1.45173        2.63898
H         -4.30922       -1.99339        2.00451
H         -3.22052       -2.93339       -0.72576
H         -4.65188       -1.88281       -0.52647
H         -3.24919       -1.32946       -1.50340
