38
2sa2eda_225.log	Energy: -1117807.6991162
S          1.96434       -0.61171       -0.68028
O          3.25408       -1.22145       -1.02237
O          1.52177       -0.88035        0.70575
O          1.98045        0.86230       -0.96343
O          0.90560       -1.25933       -1.66108
H          3.42250        1.31012       -0.99618
H         -0.01981       -1.09746       -1.32247
S         -1.96440       -0.61311        0.67932
O         -3.25426       -1.22306        1.02051
O         -1.52200       -0.87967       -0.70717
O         -1.98005        0.86045        0.96481
O         -0.90575       -1.26256        1.65899
H         -3.42156        1.30916        0.99716
H          0.01966       -1.09992        1.32078
H         -5.77507        2.33583       -0.56838
H         -4.03601        2.59688       -0.88996
H         -5.15414        0.77963       -2.32680
H         -3.71852        0.24381       -1.45679
H         -6.28098       -0.82596       -1.19707
H         -4.95394       -1.17110       -0.26429
H         -4.72411        2.30503        1.52933
H         -5.01308        0.70770        1.11417
C         -4.78061        1.88379       -0.53070
C         -4.75481        0.57388       -1.32946
N         -4.47500        1.55777        0.88698
N         -5.54910       -0.42900       -0.62474
H          5.77606        2.33408        0.57087
H          4.03704        2.59625        0.89180
H          5.15313        0.77757        2.32828
H          3.71762        0.24308        1.45728
H          6.27935       -0.82842        1.19858
H          4.95279       -1.17201        0.26463
H          4.72606        2.30520       -1.52729
H          5.01345        0.70737       -1.11299
C          4.78128        1.88279        0.53252
C          4.75419        0.57252        1.33063
N          4.47605        1.55777       -0.88547
N          5.54823       -0.43054        0.62589
