28
2sa2ma_07.log	Energy: -999033.4799783
S          2.21502        0.18475       -0.22603
O          2.44188       -0.61870        0.99523
O          1.29468       -0.43091       -1.18645
O          1.93421        1.60421        0.07219
O          3.62403        0.17539       -1.02559
H          4.30349        0.54681       -0.44638
S         -2.23252       -0.22844       -0.33178
O         -2.39181        1.12272       -0.92589
O         -1.35954       -0.12351        0.88843
O         -3.44492       -0.99551       -0.15500
O         -1.34760       -1.09042       -1.37122
H         -0.43974       -0.71663       -1.41365
N         -0.53621        2.76802        0.04770
H         -0.46435        3.63433       -0.48103
H         -1.26272        2.14487       -0.41037
C         -0.90994        3.00886        1.46100
H         -1.03153        2.03338        1.93050
H         -0.12320        3.57811        1.95600
H         -1.85482        3.55085        1.49686
H          0.38688        2.28091       -0.00103
N          0.23604       -2.16687        1.46527
H          0.08173       -2.50152        2.41339
H         -0.48550       -1.41486        1.25399
C          0.17875       -3.26780        0.47252
H          0.43936       -2.85249       -0.49905
H          0.89074       -4.04459        0.75139
H         -0.83384       -3.66775        0.43410
H          1.15440       -1.67281        1.41471
