38
2sa2eda_72.log	Energy: -1117822.4995106
S         -2.38075        1.13175       -0.10096
O         -3.27787        0.06160        0.34736
O         -1.77193        1.91064        0.99886
O         -1.38891        0.71672       -1.11505
O         -3.30244        2.18157       -0.93688
H         -4.06495        2.40882       -0.38776
S          2.57854       -1.40403       -0.15843
O          2.00258       -2.34575       -1.13966
O          3.36917       -0.31862       -0.73593
O          1.57202       -0.95741        0.83753
O          3.59134       -2.28315        0.76761
H          4.33868       -2.54981        0.21554
H          2.35657        1.88160       -0.71474
H          0.64172        1.89669       -1.18502
H          1.63735        4.20533       -1.34509
H          0.32781        4.12496       -0.16095
H          3.18832        4.17806        0.47924
H          1.99996        5.15486        1.03885
H          1.26046        0.70730        0.94035
H          1.50599        2.26589        1.57609
C          1.36713        2.27027       -0.46129
C          1.34880        3.79001       -0.37107
N          1.00297        1.71743        0.87072
N          2.20757        4.21038        0.73818
H         -0.02224        1.81094        1.03005
H         -2.71222       -1.95826       -1.11418
H         -1.78073       -3.35293       -1.71141
H         -3.33209       -3.85614        0.25790
H         -1.64094       -4.29002        0.55493
H         -2.83888       -1.76441        1.48919
H         -2.27924       -3.01756        2.42667
H         -0.77997       -0.94525       -0.95841
H         -0.59460       -1.82301        0.42347
C         -1.93510       -2.68302       -0.86465
C         -2.32322       -3.44602        0.40450
N         -0.69183       -1.91438       -0.60242
N         -2.18534       -2.54356        1.53833
H          0.19332       -2.32195       -0.95396
