38
2sa2eda_59.log	Energy: -1117821.4154817
S          2.86539        0.94033        0.06977
O          3.28386       -0.19787       -0.74808
O          2.50908        2.15924       -0.65634
O          1.83053        0.55929        1.08440
O          4.11854        1.31753        1.04162
H          4.83779        1.64143        0.48266
S         -2.86548       -0.94024        0.06979
O         -3.28361        0.19811       -0.74804
O         -2.50880       -2.15898       -0.65642
O         -1.83112       -0.55940        1.08501
O         -4.11910       -1.31768        1.04091
H         -4.83805       -1.64157        0.48154
H          0.22474        2.65060       -1.07656
H         -0.87169        1.26760       -1.31469
H         -1.97101        3.43513       -1.97756
H         -2.82049        2.57982       -0.68604
H         -1.12311        4.95152       -0.33556
H         -2.65149        4.69860        0.19519
H          0.37843        1.52505        0.91037
H         -0.80207        2.72038        1.20448
C         -0.71607        2.19448       -0.76111
C         -1.90716        3.13115       -0.92543
N         -0.57989        1.86265        0.68390
N         -1.76390        4.24646        0.01361
H         -1.23030        1.09449        0.94697
H         -0.22429       -2.65114       -1.07712
H          0.87167       -1.26778       -1.31481
H          1.97223       -3.43481       -1.97730
H          2.82079       -2.57936       -0.68531
H          1.12402       -4.95168       -0.33588
H          2.65209       -4.69835        0.19555
H         -0.37898       -1.52534        0.90974
H          0.80145       -2.72059        1.20436
C          0.71628       -2.19475       -0.76131
C          1.90775       -3.13097       -0.92517
N          0.57941       -1.86293        0.68364
N          1.76443       -4.24646        0.01368
H          1.22975       -1.09481        0.94686
