38
2sa2eda_271.log	Energy: -1117800.4885366
S          1.25636       -1.49135        0.47686
O          2.56869       -1.91121        0.97643
O          0.28461       -1.08130        1.50663
O          1.39345       -0.43673       -0.58537
O          0.67587       -2.78440       -0.24767
H          2.91580       -0.32046       -0.87534
H         -0.27554       -2.64622       -0.48156
S         -2.64214       -1.08666       -0.35218
O         -4.08207       -1.01317       -0.44371
O         -1.95584       -2.32016       -0.71665
O         -1.98141        0.05864       -1.17980
O         -2.28607       -0.71887        1.14917
H         -2.49580        0.98921       -0.98448
H         -1.30819       -0.86263        1.31913
H         -2.04424        1.92081        1.75570
H         -1.20270        3.47310        1.80630
H         -3.16582        3.94184        0.61491
H         -1.90930        3.79677       -0.63294
H         -3.94767        1.78959        0.04719
H         -3.75024        2.56480       -1.37213
H          0.36005        1.84606        1.21514
H         -0.50441        1.28705       -0.03035
C         -1.50770        2.66076        1.13864
C         -2.47983        3.24474        0.11885
N         -0.30618        2.13001        0.50317
N         -3.24473        2.18493       -0.57646
H          4.09823        2.08348       -1.74146
H          4.75509        2.85016       -0.29648
H          5.70833        0.66861       -0.30797
H          4.41334        0.62269        0.91900
H          4.34799       -0.54322       -1.78522
H          4.08695       -1.28146       -0.30040
H          2.42666        3.25043       -0.24823
H          2.04635        1.67258       -0.37701
C          4.06869        2.06820       -0.63576
C          4.63068        0.74005       -0.14407
N          2.76406        2.31590       -0.05282
N          3.98810       -0.41366       -0.84199
