34
2sa2dma_67.log	Energy: -1048338.3433589
S         -0.46238        2.09418       -0.19560
O          0.72547        2.18515       -1.09001
O         -1.60632        1.38233       -0.75315
O         -0.08477        1.66141        1.16496
O         -0.98388        3.62451       -0.07563
H         -0.22238        4.19118        0.10779
S          2.40043       -0.72055       -0.17109
O          3.47787       -1.61341       -0.51612
O          1.01684       -1.10587       -0.36733
O          2.47797       -0.43342        1.42062
O          2.69221        0.66126       -0.80984
H          3.40111       -0.28277        1.66873
H          1.85533        1.27381       -0.88363
N         -1.30455       -0.83162        1.44554
C         -0.71048       -1.92659        2.23184
C         -2.58056       -0.31349        1.97511
H         -0.64625       -0.03303        1.37697
H         -1.40851       -2.76590        2.26101
H          0.21719       -2.22984        1.74865
H         -0.50455       -1.58401        3.24767
H         -3.31644       -1.12001        1.99667
H         -2.43146        0.08204        2.98135
H         -2.91766        0.48369        1.31196
H         -1.47630       -1.16251        0.42886
N         -1.83686       -1.57205       -1.14200
C         -3.23016       -1.29915       -1.48875
C         -1.38701       -2.89761       -1.55881
H         -1.24788       -0.85750       -1.56488
H         -3.88692       -1.95475       -0.90623
H         -3.45774       -0.25842       -1.25008
H         -3.43843       -1.46874       -2.55507
H         -1.94758       -3.66138       -1.00885
H         -1.53903       -3.07422       -2.63358
H         -0.32523       -3.00454       -1.32946
