38
2sa2eda_247.log	Energy: -1117803.8746091
S         -3.14483       -0.01762        0.21603
O         -2.09917        0.52126       -0.64784
O         -4.48502        0.50063        0.12532
O         -3.19474       -1.55750        0.12478
O         -2.57843        0.27333        1.69593
H         -2.26566       -2.00542       -0.09394
H         -3.26638        0.05793        2.34215
S          0.26596       -1.98911       -0.33960
O         -1.05715       -2.65137       -0.48830
O          1.39702       -2.79944       -0.76112
O          0.25611       -0.75308       -1.40168
O          0.41102       -1.34718        0.98685
H         -0.58678       -0.26745       -1.27744
H          1.52632       -0.02370        0.86072
H          1.48620        4.73991       -0.84199
H          2.46486        3.32970       -1.27698
H          0.20223        3.16389       -2.26267
H          0.47478        1.86604       -1.10516
H         -1.23219        4.18339       -0.68902
H         -1.50828        2.59544       -0.37488
H          2.46943        3.93902        1.15730
H          0.89888        3.45094        1.18421
C          1.59584        3.65597       -0.69428
C          0.33670        2.94875       -1.19358
N          1.79949        3.31353        0.72168
N         -0.80270        3.32497       -0.36255
H          4.35948        0.77003        1.20420
H          3.31540       -0.01841        2.41267
H          4.87716       -1.64095        1.17924
H          3.16210       -2.04907        1.05586
H          4.87196       -1.30970       -1.09061
H          3.32498       -1.90596       -1.11941
H          2.17366        1.58208        0.75825
H          2.55602        0.36124       -0.37655
C          3.55108        0.04764        1.34872
C          3.91967       -1.31910        0.75656
N          2.36469        0.55023        0.62000
N          3.94435       -1.21790       -0.69984
