38
2sa2eda_181.log	Energy: -1117811.5350439
S          0.86875       -1.95939        0.40131
O          0.52318       -1.83747       -1.14016
O          2.13367       -2.64048        0.50155
O          0.70896       -0.64557        1.01000
O         -0.23309       -2.93037        0.96372
H         -1.13422       -2.50827        0.86859
S         -2.71008       -0.48897       -0.29807
O         -3.14423        0.65893        0.49129
O         -2.53699       -1.73682        0.46720
O         -3.87133       -0.79721       -1.38508
O         -1.55255       -0.18957       -1.18988
H         -4.65868       -1.09726       -0.90986
H         -0.28849       -1.26834       -1.25972
H          0.49239        3.87491        0.03959
H         -0.40757        3.42188       -1.42605
H         -1.84430        4.46784        0.42817
H         -2.40266        2.88696       -0.13208
H         -1.58771        3.52032        2.47942
H         -2.12350        2.07616        1.88175
H          1.16819        1.69528       -0.57928
H          0.17352        1.60307        0.81075
C         -0.28661        3.21889       -0.35933
C         -1.60075        3.40051        0.40649
N          0.18524        1.82869       -0.19090
N         -1.46439        2.83613        1.74601
H         -0.45461        1.14450       -0.63109
H          4.78148        2.10036       -0.63112
H          3.51764        2.59627        0.50781
H          4.71047        0.57088        1.31002
H          3.00125        0.23669        1.01368
H          5.22784       -0.69988       -0.60007
H          3.83318       -1.46632       -0.16603
H          2.89918        2.38602       -1.96343
H          2.95146        0.77036       -1.68625
C          3.81049        1.81438       -0.20239
C          3.94989        0.47459        0.52296
N          2.78037        1.67833       -1.24493
N          4.23412       -0.57736       -0.44762
