38
2sa2eda_149.log	Energy: -1117820.1351929
S         -0.26103        1.98374       -0.61089
O          0.77266        1.86468        0.41380
O         -0.16479        0.99512       -1.71302
O         -1.64725        2.07745       -0.10936
O          0.07400        3.42615       -1.28413
H         -0.57062        3.59155       -1.98526
S          0.43332       -2.22283       -0.55749
O          1.37723       -3.22400       -0.09239
O         -0.71180       -2.65990       -1.36089
O         -0.06042       -1.32848        0.57291
O          1.32409       -1.22686       -1.45718
H          1.19383       -0.57774        1.33497
H          0.79770       -0.40929       -1.64847
H         -4.52270       -1.01700       -0.28951
H         -3.42136       -2.21609        0.44946
H         -4.56139       -0.89214        2.18047
H         -2.82291       -0.58334        2.21548
H         -4.52072        1.38910        2.22087
H         -3.24018        1.54213        1.20804
H         -2.31884       -1.09985       -1.35273
H         -2.53336        0.40781       -0.62772
C         -3.61479       -1.15134        0.30146
C         -3.74229       -0.41903        1.63109
N         -2.46966       -0.60800       -0.46867
N         -4.06573        0.98394        1.41280
H         -1.57246       -0.77167        0.05150
H          4.09787       -0.78222        1.92409
H          3.15456       -1.61019        0.64770
H          4.60202        0.30162       -0.23518
H          2.88297        0.51607       -0.55889
H          4.51714        2.16713        1.09746
H          2.96010        2.41242        0.58535
H          1.97828       -0.79860        2.79026
H          2.07093        0.70239        2.04865
C          3.31047       -0.66714        1.17493
C          3.63248        0.49466        0.23422
N          2.05123       -0.31796        1.89715
N          3.60523        1.74447        0.99148
