38
2sa2eda_185.log	Energy: -1117810.2848254
S         -0.61721        2.04840        0.39932
O          0.84570        1.97451        0.36287
O         -1.24752        1.79418       -0.91642
O         -1.24489        1.25427        1.47997
O         -0.89590        3.59459        0.76488
H         -1.84428        3.71185        0.91621
S         -2.59728       -1.34783       -0.49835
O         -1.19592       -1.55130       -0.86318
O         -3.54705       -2.39594       -0.72932
O         -2.66666       -0.97465        1.03496
O         -3.11425       -0.04685       -1.23100
H         -2.08334       -0.19550        1.24165
H         -2.43522        0.68309       -1.16147
H          2.20200       -0.98734       -2.96441
H          1.33910        0.55865       -3.06922
H          3.76196        0.96966       -3.11859
H          3.03649        1.65665       -1.66188
H          4.62812       -0.79996       -1.74970
H          4.84898        0.53332       -0.82822
H          0.34715       -0.70446       -1.31985
H          1.79486       -1.10054       -0.59019
C          2.00289       -0.04496       -2.44590
C          3.29170        0.71452       -2.15800
N          1.30750       -0.35833       -1.18206
N          4.14550       -0.05505       -1.25827
H          1.22741        0.49402       -0.60178
H          3.06743       -2.52628        2.50199
H          3.92061       -1.55231        1.28252
H          2.90471       -0.15382        3.08751
H          2.30465        0.25685        1.48616
H          0.80801       -1.12053        3.56293
H          0.31565        0.03984        2.50563
H          2.41948       -3.22992        0.30323
H          1.14917       -2.43728        0.99011
C          2.93474       -1.79271        1.69231
C          2.29207       -0.52311        2.25245
N          2.09157       -2.32170        0.61396
N          0.90150       -0.78181        2.61277
