34
2sa2dma_45.log	Energy: -1048347.4650248
S          2.20683       -1.42355        0.04062
O          2.90161       -0.68692       -1.00566
O          2.14919       -0.70231        1.33740
O          0.88289       -1.97346       -0.34289
O          3.13274       -2.73380        0.30170
H          2.64086       -3.33527        0.87604
S         -1.25509        0.86176       -0.88019
O         -2.62090        1.17846       -1.33323
O         -0.19750        1.76040       -1.36640
O         -1.18532        0.68903        0.60606
O         -1.01652       -0.59605       -1.49144
H         -2.63127       -0.23103        0.91044
H         -0.21876       -1.05071       -1.08548
N          1.79958        1.89871        0.54480
C          3.10222        2.36199        0.02099
C          1.19721        2.76237        1.58002
H          1.11928        1.81652       -0.24142
H          3.81302        2.43617        0.84562
H          3.45098        1.62395       -0.70157
H          2.97226        3.33665       -0.45223
H          1.86063        2.80248        2.44555
H          1.05243        3.76385        1.17139
H          0.23470        2.32949        1.85291
H          1.91307        0.92860        0.92541
N         -3.56193       -0.57935        0.56729
C         -4.64051       -0.21651        1.50673
C         -3.46374       -2.02034        0.23906
H         -3.63094       -0.01777       -0.30564
H         -4.48819       -0.74201        2.45034
H         -4.60847        0.86013        1.67369
H         -5.60398       -0.49645        1.07852
H         -3.25284       -2.57839        1.15206
H         -4.40566       -2.35576       -0.19742
H         -2.64914       -2.14503       -0.47471
