38
2sa2eda_57.log	Energy: -1117824.8329736
S          0.18059       -1.21924       -1.61939
O         -0.07682       -1.60629       -0.19591
O          1.26262       -0.17625       -1.64204
O          0.38111       -2.33134       -2.51668
O         -1.14231       -0.46723       -2.11925
H         -1.19485        0.43085       -1.69691
S         -0.30155        2.52555        0.01882
O         -0.00743        1.71674        1.25941
O         -1.34748        1.82552       -0.77142
O         -0.51622        3.92878        0.27241
O          1.04665        2.43091       -0.86398
H          1.05669        1.57208       -1.34803
H          2.58220       -0.74747        2.69836
H          1.56381       -1.62005        1.51229
H          3.84748       -2.65677        1.67394
H          3.51492       -2.00823        0.06770
H          5.29460       -0.81727        2.05696
H          5.53156       -1.03479        0.45206
H          1.50638        0.84588        1.21416
H          3.16713        0.73941        0.84648
C          2.46098       -1.01398        1.64465
C          3.69809       -1.72768        1.10980
N          2.27704        0.23325        0.86915
N          4.83610       -0.80980        1.15255
H          2.00455        0.00557       -0.11612
H         -3.82903        0.45587        1.34857
H         -3.10406        0.29482       -0.25919
H         -4.82058       -1.50061        0.12146
H         -3.20431       -2.18132       -0.08133
H         -4.66817       -1.95832        2.43851
H         -3.83080       -3.22687        1.83815
H         -1.38914        0.57753        1.47300
H         -1.99037       -0.84625        2.19929
C         -3.22460       -0.19152        0.70722
C         -3.83088       -1.58288        0.58735
N         -1.88340       -0.32440        1.32592
N         -3.84270       -2.21669        1.90861
H         -1.23457       -0.87188        0.70166
