34
2sa2dma_51.log	Energy: -1048348.1617423
S         -2.78758       -1.03825       -0.24572
O         -3.66114       -2.10811       -0.66204
O         -1.52189       -0.87756       -1.03966
O         -3.43407        0.29791       -0.10640
O         -2.28571       -1.45029        1.23631
H         -2.34103        1.44572       -0.13350
H         -1.54383       -0.86892        1.49976
S          1.18807       -0.18451        0.74530
O          2.31121       -0.61910        1.56942
O         -0.02035        0.28752        1.46500
O          1.61253        0.85944       -0.25820
O          0.77144       -1.45902       -0.09633
H          3.04083        0.46744       -0.70334
H         -0.14869       -1.31528       -0.51283
N          4.03294        0.10144       -0.92827
C          3.94839       -1.36950       -1.13175
C          4.93456        0.49596        0.18321
H          4.32960        0.54883       -1.79440
H          3.61645       -1.81652       -0.19478
H          3.20714       -1.57469       -1.90352
H          4.92736       -1.75473       -1.42162
H          4.51224        0.08696        1.10161
H          5.93599        0.10216        0.00156
H          4.96007        1.58392        0.24653
N         -1.49227        2.08961       -0.11856
C         -1.80281        3.32799        0.61736
C         -1.02566        2.29006       -1.50565
H         -0.79206        1.53904        0.41092
H         -2.61685        3.85070        0.11274
H         -2.11016        3.06658        1.63007
H         -0.91718        3.96512        0.65353
H         -1.78405        2.85123       -2.05448
H         -0.07846        2.83058       -1.49515
H         -0.89290        1.30516       -1.95246
