40
2sa2tma_23.log	Energy: -1097652.2978771
S          0.04850       -1.64745        0.48409
O          0.83107       -0.80989        1.43521
O         -0.94840       -2.50073        1.11655
O         -0.51046       -0.80261       -0.61199
O          1.08874       -2.64308       -0.20524
H          1.82363       -2.10746       -0.57701
S          3.41348        0.43405       -0.40605
O          3.97117        1.52602       -1.16073
O          2.95281       -0.77173       -1.06852
O          4.52696       -0.09913        0.63090
O          2.30262        1.01022        0.52180
H          5.01027        0.65953        0.98817
H          1.69761        0.26393        0.90707
N         -3.15861       -0.83121       -0.54041
C         -3.72062        0.14975       -1.49743
H         -3.42666        1.14394       -1.15549
H         -3.30459       -0.04646       -2.48637
H         -4.80837        0.04832       -1.52119
C         -3.44532       -2.23553       -0.92386
H         -3.06435       -2.40646       -1.93122
H         -2.92477       -2.88962       -0.22350
H         -4.52429       -2.40369       -0.89332
C         -3.57724       -0.54404        0.85510
H         -3.02738       -1.21436        1.51690
H         -3.32132        0.49463        1.06608
H         -4.65428       -0.70459        0.94583
H         -2.10227       -0.73471       -0.56812
N         -1.89253        2.40036        0.23917
C         -0.91454        2.45643       -0.84313
H         -0.37272        1.51002       -0.89583
H         -1.42779        2.61974       -1.79726
H         -0.18495        3.27359       -0.70314
C         -2.66911        3.62829        0.30225
H         -3.18150        3.79491       -0.65122
H         -3.42557        3.55338        1.09034
H         -2.04263        4.51520        0.51111
C         -1.22737        2.14142        1.51088
H         -1.96971        2.08290        2.31435
H         -0.68843        1.19219        1.46550
H         -0.50459        2.93512        1.77164
