38
2sa2eda_75.log	Energy: -1117821.5054791
S          2.02009       -1.80905       -0.04176
O          0.81711       -1.89357       -0.90090
O          2.98199       -0.80691       -0.55144
O          1.69987       -1.69746        1.38460
O          2.77977       -3.23858       -0.14957
H          3.16564       -3.30958       -1.03319
S         -2.00661        1.67985        0.08635
O         -1.51199        3.05262        0.09921
O         -1.26977        0.81535       -0.88376
O         -2.14871        1.01950        1.39473
O         -3.54044        1.71350       -0.44963
H         -3.57108        2.23576       -1.26256
H         -1.74086       -3.49907        0.71938
H         -2.73294       -2.61201        1.89958
H         -3.95560       -2.93293       -0.23190
H         -3.70892       -1.22312        0.09390
H         -2.10850       -1.07122       -1.56411
H         -1.97882       -2.70893       -1.76147
H         -0.40255       -1.78803        1.72037
H         -0.63582       -1.45382        0.15420
C         -2.21969       -2.54036        0.93733
C         -3.19216       -2.14801       -0.18329
N         -1.14021       -1.53078        1.05754
N         -2.60190       -1.95626       -1.49180
H         -1.51837       -0.58828        1.29554
H          0.80063        2.59503        0.75165
H          1.49519        1.00500        1.16681
H          3.10794        2.86330        1.68675
H          3.73512        1.74356        0.46950
H          2.65150        4.41528       -0.07200
H          4.08571        3.77976       -0.54070
H          0.41627        1.20193       -1.06473
H          1.72210        2.22140       -1.48462
C          1.59698        1.88198        0.52447
C          2.97758        2.51098        0.65589
N          1.41384        1.44754       -0.88699
N          3.11458        3.55868       -0.35802
H          2.01459        0.61596       -1.05316
