34
2sa2dma_32.log	Energy: -1048355.7829326
S          0.73293       -1.94344       -0.30005
O          1.40652       -1.58485        0.95729
O         -0.67274       -2.34527       -0.17858
O          0.96846       -0.94740       -1.37622
O          1.54844       -3.27562       -0.76112
H          1.10896       -3.63868       -1.54183
S         -0.70600        1.93447       -0.49066
O          0.58258        2.63364       -0.67655
O         -1.91236        2.74504       -0.48261
O         -0.90147        0.94471       -1.74182
O         -0.59624        1.01733        0.70044
H         -0.20754        0.23633       -1.70194
H         -1.91203        0.19556        0.82517
N          2.36704        0.99782        0.63716
C          3.61576        0.73390       -0.10500
C          2.54435        1.64884        1.94950
H          1.73340        1.59745        0.06104
H          4.25873        0.08737        0.49405
H          3.35222        0.23104       -1.03551
H          4.11879        1.67950       -0.31309
H          3.15273        1.00907        2.59081
H          3.03136        2.61521        1.81074
H          1.55692        1.79198        2.38790
H          1.87459        0.09068        0.77739
N         -2.88221       -0.25094        0.92814
C         -2.80566       -1.33920        1.93104
C         -3.36590       -0.68512       -0.40793
H         -3.47430        0.50657        1.26864
H         -2.09634       -2.07868        1.55784
H         -2.44394       -0.92207        2.87125
H         -3.79377       -1.78236        2.06899
H         -2.66507       -1.43075       -0.78230
H         -4.36885       -1.10469       -0.30732
H         -3.36747        0.18065       -1.06991
