22
2sa2a_05.log	Energy: -949708.0101970
S          2.54447       -0.01825        0.11047
O          2.42709        1.11113        1.03507
O          2.58071       -1.34865        0.72916
O          1.55017        0.06367       -1.00589
O          3.94461        0.16065       -0.69256
H          4.66905        0.06907       -0.05837
S         -2.55714       -0.01176       -0.02977
O         -1.48938       -0.18270        0.98455
O         -2.55036        1.34901       -0.61391
O         -2.60132       -1.09595       -1.01278
O         -3.90980       -0.10858        0.85832
H         -4.66973       -0.02931        0.26541
N          0.03927       -2.10902       -0.17466
H         -0.56110       -2.79523       -0.62439
H          0.82346       -2.51047        0.34540
H          0.46231       -1.46124       -0.86180
H         -0.54363       -1.49992        0.44949
N          0.00766        2.18054       -0.16947
H          0.56549        1.45958       -0.68205
H          0.29922        3.11368       -0.44591
H         -1.01421        2.01622       -0.34217
H          0.22945        2.02860        0.81646
