34
2sa2dma_103.log	Energy: -1048321.7115028
S          2.67911       -0.81743       -0.37763
O          3.68822        0.11608       -0.81389
O          1.45031       -1.00941       -1.12639
O          3.35263       -2.28266       -0.37883
O          2.38955       -0.59432        1.13705
H          4.28873       -2.19008       -0.15231
H          1.39857       -0.63208        1.35349
S         -1.28532       -0.20325        1.10100
O         -1.49376        1.21581        1.37399
O         -0.09771       -0.81659        1.71989
O         -2.51670       -1.01498        1.31983
O         -1.08857       -0.33387       -0.50864
H         -3.58271       -0.66173        0.31401
H         -0.13329       -0.43993       -0.73330
N         -4.26364       -0.38039       -0.48393
C         -3.96801       -1.23714       -1.65824
C         -4.08752        1.07222       -0.74198
H         -5.20916       -0.55780       -0.14812
H         -2.91382       -1.10300       -1.90100
H         -4.14606       -2.27802       -1.38872
H         -4.60243       -0.94693       -2.49765
H         -3.06459        1.23040       -1.08310
H         -4.80248        1.40021       -1.49845
H         -4.23154        1.61282        0.19288
N          1.11080        1.97499       -0.07971
C          1.04090        2.37614       -1.47285
C          2.13866        2.68748        0.66182
H          0.21037        2.10802        0.37138
H          1.96978        2.09110       -1.97839
H          0.21647        1.85082       -1.96521
H          0.89557        3.46253       -1.61458
H          3.12195        2.42486        0.25929
H          2.02753        3.78548        0.61466
H          2.11048        2.37927        1.71014
