22
2sa2a_28.log	Energy: -949698.4478625
S          1.97182       -0.62143       -0.01003
O          0.86066       -1.61528       -0.00833
O          1.97416        0.21774       -1.21055
O          2.10735        0.10436        1.26092
O          3.31496       -1.51979       -0.03637
H          3.28764       -2.08337       -0.82178
S         -2.30622       -0.26784       -0.11309
O         -3.62640       -0.26254       -0.68559
O         -1.58634        0.98037        0.08176
O         -2.37294       -0.88300        1.37879
O         -1.44529       -1.29226       -0.89340
H         -2.90931       -1.68893        1.36752
H         -0.46725       -1.36772       -0.54403
N          0.44840        2.25834        1.45636
H         -0.49227        1.85331        1.47055
H          1.13261        1.46985        1.52208
H          0.56730        2.68995        0.47389
H          0.58037        2.93125        2.20451
N          0.66732        2.89357       -1.19098
H          1.18038        2.04269       -1.43783
H          1.11865        3.68255       -1.64121
H         -0.26706        2.79866       -1.57931
