28
2sa2ma_57.log	Energy: -999012.8529576
S         -0.67605       -0.68234       -0.69430
O         -1.89453       -0.64731       -1.50732
O         -0.07722        0.68164       -0.52151
O         -0.85972       -1.34833        0.61223
O          0.36648       -1.53188       -1.54527
H         -2.62206       -1.10694        1.02969
H          1.24483       -1.51205       -1.10288
S          3.25415        0.14669        0.26335
O          4.62613        0.54975        0.10104
O          2.76901       -1.10936       -0.27798
O          2.94204        0.03851        1.84189
O          2.34544        1.32215       -0.20673
H          3.48592        0.69114        2.30552
H          1.36674        1.03296       -0.32562
N         -2.66419        1.95413        0.46893
H         -2.78127        2.66838        1.18091
C         -3.17451        2.42538       -0.82922
H         -2.71009        3.36109       -1.15840
H         -2.96628        1.65688       -1.57712
H         -4.25600        2.57616       -0.76557
H         -1.66125        1.77623        0.37768
N         -3.51300       -0.64929        0.75325
H         -3.28325        0.40775        0.75076
C         -4.67307       -1.01580        1.58237
H         -5.55874       -0.49242        1.22115
H         -4.84034       -2.09199        1.53415
H         -4.47849       -0.72679        2.61520
H         -3.60459       -0.90295       -0.23507
