38
2sa2eda_197.log	Energy: -1117809.5460083
S          3.01562        0.31984        0.35359
O          2.78946        1.14866       -0.82185
O          2.19003        0.70105        1.52180
O          2.99025       -1.14987        0.11533
O          4.55822        0.60723        0.76428
H          4.83101       -0.07578        1.39166
S         -0.30212       -2.02952       -0.66097
O         -1.23610       -3.01949       -1.15464
O         -0.19634       -0.77502       -1.41219
O         -0.69218       -1.64800        0.83038
O          1.08745       -2.67313       -0.48217
H         -1.72017       -1.61635        0.88419
H          1.83712       -1.99531       -0.25496
H         -0.12727        3.59275        0.17906
H          1.10328        2.79583       -0.83063
H         -0.63028        3.71146       -2.29213
H         -0.66394        1.94747       -2.34652
H         -2.57545        3.63787       -0.90870
H         -2.87309        2.53861       -2.07418
H          0.66929        1.32242        0.89071
H         -1.02171        1.44779        0.76665
C          0.06047        2.76258       -0.50879
C         -0.87172        2.81223       -1.70826
N         -0.12366        1.49819        0.23887
N         -2.27243        2.74378       -1.28320
H         -0.11106        0.69544       -0.41601
H         -4.50269        0.52364        2.04291
H         -4.02215        1.80116        0.91312
H         -4.64796       -0.15455       -0.33060
H         -2.91924        0.16881       -0.54620
H         -3.95330       -1.83712        1.35549
H         -3.34736       -2.17521       -0.12599
H         -2.47450        1.68703        2.71077
H         -2.10061        0.13668        2.39057
C         -3.72485        0.83374        1.32650
C         -3.67397       -0.15887        0.17503
N         -2.41473        1.00372        1.96231
N         -3.30801       -1.50673        0.64266
