38
2sa2eda_152.log	Energy: -1117818.8940420
S         -1.86647       -1.11488       -1.12020
O         -2.99878       -0.53158       -0.35341
O         -1.32543       -0.16039       -2.10430
O         -0.86890       -1.75293       -0.25477
O         -2.47858       -2.35290       -1.96060
H         -3.03408       -1.99736       -2.66805
S          1.62340        1.64256       -0.82134
O          2.86137        1.32489       -0.09466
O          1.65205        2.71879       -1.79120
O          1.33818        0.23875       -1.59596
O          0.48487        1.74244        0.15851
H          0.42547        0.21654       -1.96242
H         -1.04344        1.81995        0.11700
H          2.26159       -1.94571        2.64170
H          1.03712       -2.74871        1.60570
H          3.32213       -3.36693        0.90971
H          2.50393       -2.45639       -0.36468
H          4.90806       -1.81104        0.39621
H          3.85817       -0.57174        0.18604
H          0.50240       -0.38791        1.90107
H          1.98524        0.03688        1.21018
C          1.84956       -2.01900        1.63318
C          2.94899       -2.37484        0.63901
N          1.26856       -0.70218        1.27599
N          4.03943       -1.41371        0.73052
H          0.83022       -0.76903        0.34582
H         -3.41353        0.44214        2.35973
H         -2.43097        1.00159        3.71514
H         -2.79492        2.81472        2.20839
H         -1.06334        2.40730        2.21626
H         -2.58476        1.08626        0.11020
H         -2.43138        2.75201       -0.01456
H         -1.51093       -0.98870        3.19060
H         -1.63615       -0.81886        1.58580
C         -2.40127        0.75785        2.64892
C         -2.05778        2.05789        1.93074
N         -1.41626       -0.30866        2.44225
N         -2.05704        1.92373        0.44191
