28
2sa2ma_16.log	Energy: -999031.8922161
S          1.87617       -0.77540       -0.23867
O          0.97967       -1.94863       -0.26612
O          2.18622       -0.21175        1.06545
O          3.30614       -1.32257       -0.77500
O          1.45415        0.25616       -1.23965
H          3.16279       -1.77832       -1.61555
H         -0.24605        0.15744       -1.61382
S         -1.90218        0.76816       -0.35437
O         -1.95707        2.20044       -0.64461
O         -1.22450        0.02635       -1.62615
O         -0.98820        0.46599        0.79364
O         -3.17178        0.03605       -0.22964
H          0.20580        1.67227        0.86628
H         -2.37514       -1.58539        0.06260
N         -1.68070       -2.31496        0.33446
H         -1.91976       -3.18896       -0.12879
C         -1.62874       -2.45511        1.81004
H         -0.85241       -3.17314        2.07145
H         -1.38227       -1.47313        2.21100
H         -2.59951       -2.78465        2.17973
H         -0.73949       -2.01554       -0.00845
N          0.81825        2.40572        0.42966
H          1.27597        1.87458       -0.33251
C          1.79465        3.00105        1.36425
H          2.40212        3.73774        0.83856
H          1.26097        3.47772        2.18611
H          2.42283        2.19424        1.74010
H          0.16506        3.07359        0.01400
