28
2sa2ma_30.log	Energy: -999023.7759020
S          1.33410        0.34718        0.82272
O          2.56487        0.37457        1.59432
O          0.11043        0.87198        1.44349
O          1.52078        0.95035       -0.55872
O          1.08278       -1.21840        0.52326
H          2.59827       -0.13644       -1.31007
H          0.17689       -1.31327        0.04518
S         -2.41345       -0.93283       -0.15633
O         -3.39955       -1.97215       -0.32161
O         -1.07107       -1.21389       -0.77013
O         -2.85009        0.43344       -0.56874
O         -2.13673       -0.85061        1.43014
H         -1.71451        1.39202       -0.96462
H         -1.42712       -0.19676        1.60039
N          3.11687       -1.05694       -1.33813
H          2.50790       -1.63794       -0.73735
C          4.47588       -0.91691       -0.74972
H          4.94374       -1.89817       -0.67975
H          5.06976       -0.25835       -1.38230
H          4.35276       -0.47853        0.24149
H          3.12665       -1.43728       -2.28208
N         -0.95416        2.11814       -1.19278
H         -0.02975        1.65931       -1.06108
C         -1.08418        3.28373       -0.28808
H         -0.32256        4.02629       -0.52737
H         -2.08011        3.71260       -0.39683
H         -0.93960        2.92293        0.72923
H         -1.05329        2.38251       -2.17000
