38
2sa2eda_53.log	Energy: -1117823.3231858
S          2.60600        0.58803        0.06706
O          3.73337       -0.33410       -0.03520
O          2.90981        2.01255        0.01699
O          1.44059        0.20075       -0.78337
O          1.93260        0.30577        1.55880
H          2.61481        0.44895        2.22819
S         -2.97561       -0.70070        0.18161
O         -2.43950       -1.64502        1.18720
O         -3.46210        0.56275        0.73171
O         -2.05687       -0.55067       -0.97207
O         -4.25460       -1.44621       -0.49565
H         -4.96190       -1.47832        0.16259
H          0.02025       -4.02835       -0.15526
H         -0.27671       -2.84394       -1.45183
H          2.01708       -4.00138       -1.61999
H          2.09870       -2.23945       -1.52778
H          3.08683       -4.08383        0.40842
H          3.35190       -2.45561        0.25956
H         -0.78567       -1.97667        0.80009
H          0.87913       -2.19789        1.15734
C          0.35814       -3.08838       -0.59846
C          1.84473       -3.14168       -0.96361
N          0.18396       -2.02763        0.42072
N          2.64572       -3.18647        0.25909
H          0.42563       -1.11411       -0.00015
H         -1.87596        2.56218        0.60081
H         -0.41480        1.68690        1.08523
H         -0.12841        4.17830        1.38337
H          1.03674        3.48640        0.24543
H         -1.31039        5.08910       -0.46326
H          0.23296        5.22295       -0.99283
H         -1.41265        1.06084       -1.12143
H         -0.85500        2.60015       -1.65587
C         -0.81756        2.41368        0.37717
C         -0.02312        3.71491        0.39444
N         -0.72606        1.83244       -0.98816
N         -0.48007        4.56161       -0.71083
H          0.20666        1.38923       -1.11163
