38
2sa2eda_219.log	Energy: -1117808.1350784
S         -0.45444       -2.07997        0.56354
O          0.32831       -3.28084        0.69054
O         -1.97018       -2.45412        0.77079
O         -0.13970       -0.92153        1.38853
O         -0.38735       -1.64574       -0.96134
H          1.31182        0.32225        0.21151
H         -0.83032       -0.75363       -1.08938
S         -2.70149        1.01899       -0.47338
O         -3.64838        1.80268       -1.23917
O         -1.39125        0.75629       -1.14653
O         -2.18916        1.98855        0.75559
O         -3.24178       -0.19544        0.16014
H         -2.96295        2.45108        1.10428
H         -2.52403       -1.63528        0.62728
H          1.09983        3.02082        1.40443
H          0.02005        1.72217        1.94029
H          1.99170        1.83027        3.39653
H          1.89835        0.29072        2.53220
H          3.66974        2.50774        1.75215
H          4.11963        1.07509        2.37883
H          0.11903        1.37238       -0.29875
H          1.76739        1.71560       -0.46792
C          1.00114        1.93660        1.51575
C          2.08959        1.36093        2.40706
N          1.04048        1.33204        0.16513
N          3.41503        1.52559        1.80418
H          3.96372       -1.20000       -1.91660
H          2.39691       -2.00860       -1.99032
H          2.50723       -0.16178       -3.56272
H          1.21948        0.06199       -2.37522
H          3.84244        1.35485       -2.05674
H          2.56969        2.06993       -2.77586
H          2.64010       -1.81419        0.23628
H          3.38293       -0.33992        0.19832
C          2.89476       -1.08849       -1.67441
C          2.30687        0.04992       -2.50344
N          2.66852       -0.91832       -0.23830
N          2.82652        1.36664       -2.08947
