34
2sa2dma_78.log	Energy: -1048338.4275581
S         -1.95481       -0.53479       -0.66465
O         -3.25345       -1.05369       -1.09237
O         -0.80430       -0.85865       -1.51879
O         -2.02922        0.94294       -0.38286
O         -1.71449       -1.22655        0.75996
H         -3.35074        1.24205        0.14745
H         -0.77886       -1.07422        1.06450
S          1.95497       -0.53751        0.66276
O          3.25362       -1.05767        1.08884
O          0.80450       -0.86407        1.51592
O          2.02926        0.94115        0.38562
O          1.71461       -1.22475       -0.76401
H          3.35023        1.24254       -0.14320
H          0.77905       -1.07116       -1.06814
N          4.37965        1.37955       -0.52545
C          4.63403        0.31731       -1.52941
C          5.30510        1.33929        0.63067
H          4.41650        2.29355       -0.97324
H          4.55260       -0.64430       -1.02192
H          3.86552        0.37317       -2.30010
H          5.62753        0.44601       -1.96396
H          5.15362        0.38260        1.13210
H          6.33673        1.44576        0.28843
H          5.04651        2.14819        1.31436
N         -4.37998        1.37739        0.53025
C         -4.63402        0.31156        1.53049
C         -5.30551        1.34099       -0.62593
H         -4.41696        2.28981        0.98124
H         -4.55243       -0.64824        1.01961
H         -3.86547        0.36488        2.30130
H         -5.62752        0.43856        1.96553
H         -5.15399        0.38600       -1.13057
H         -6.33710        1.44623       -0.28322
H         -5.04703        2.15221       -1.30690
