34
2sa2dma_88.log	Energy: -1048335.8367409
S         -0.28980       -1.64609       -0.02336
O         -1.51752       -2.44624        0.07574
O          0.97183       -2.42314       -0.01435
O         -0.32517       -0.62691       -1.08376
O         -0.31667       -0.82643        1.38462
H         -2.47074        0.60533        0.06073
H          0.52075       -0.31988        1.45056
S          3.02396        0.39246        0.06180
O          4.35984        0.89070        0.25320
O          2.00269        0.60875        1.07520
O          2.39469        1.08862       -1.24873
O          3.12107       -1.11020       -0.32265
H          3.04834        1.06564       -1.96235
H          2.23281       -1.63035       -0.23051
N         -3.19763       -0.19870       -0.02156
C         -3.67662       -0.21467       -1.41831
C         -4.24658       -0.00894        0.99488
H         -2.68903       -1.09062        0.14601
H         -4.14640        0.74383       -1.64840
H         -2.81042       -0.37577       -2.06131
H         -4.39655       -1.02349       -1.55509
H         -4.72598        0.96020        0.84251
H         -4.99139       -0.80313        0.91765
H         -3.78267       -0.03768        1.98117
N         -1.38053        1.86351        0.03804
C         -1.14484        2.47502        1.34429
C         -1.61549        2.84633       -1.01712
H         -0.57662        1.29349       -0.22603
H         -2.04022        3.02244        1.65809
H         -0.94036        1.69172        2.07709
H         -0.29786        3.17423        1.33378
H         -2.55863        3.37169       -0.83065
H         -0.81383        3.59546       -1.08051
H         -1.68548        2.33351       -1.97976
