38
2sa2eda_154.log	Energy: -1117819.9205533
S         -0.44046       -1.94491       -0.54998
O         -0.75309       -3.33219       -0.80224
O         -1.41297       -0.95849       -1.10460
O         -0.18302       -1.61807        0.89350
O          0.94998       -1.64861       -1.29826
H          1.21744       -0.87242        1.25360
H          1.09123       -0.66354       -1.32904
S          0.44044        1.94499       -0.54981
O          0.75305        3.33228       -0.80200
O          1.41292        0.95861       -1.10451
O          0.18308        1.61805        0.89368
O         -0.95004        1.64870       -1.29801
H         -1.21733        0.87256        1.25366
H         -1.09134        0.66362       -1.32877
H         -4.02797        1.07432        2.17813
H         -3.06671        2.26469        1.25923
H         -4.90091        1.13148       -0.09950
H         -3.29228        0.93338       -0.78211
H         -4.98496       -1.13735        0.18482
H         -3.51602       -1.26731       -0.57764
H         -1.93080        0.37088        2.66875
H         -2.18966       -0.51754        1.30216
C         -3.32818        1.20870        1.35009
C         -3.93072        0.64870        0.05673
N         -2.09178        0.44264        1.66724
N         -4.03273       -0.80063        0.16028
H          4.02804       -1.07460        2.17777
H          3.06653       -2.26479        1.25888
H          4.90075       -1.13171       -0.09993
H          3.29207       -0.93334       -0.78238
H          4.98512        1.13709        0.18459
H          3.51609        1.26733       -0.57765
H          1.93098       -0.37090        2.66861
H          2.18983        0.51754        1.30201
C          3.32815       -1.20884        1.34979
C          3.93063       -0.64882        0.05642
N          2.09188       -0.44263        1.66708
N          4.03287        0.80046        0.16009
