38
2sa2eda_56.log	Energy: -1117821.8935560
S          2.06819       -1.88786       -0.29691
O          1.37529       -1.37683        0.88913
O          1.22339       -2.73735       -1.16163
O          2.80243       -0.84464       -1.04986
O          3.21008       -2.86909        0.31740
H          3.67751       -3.28338       -0.42043
S         -2.07883        1.73850       -0.24728
O         -1.10512        0.96384       -1.07850
O         -3.05648        0.87135        0.41734
O         -1.43396        2.74475        0.59359
O         -2.89082        2.54535       -1.40973
H         -3.50787        3.14803       -0.97315
H         -3.22458       -1.27473       -0.82571
H         -2.68395       -2.89249       -1.33666
H         -4.27363       -2.84499        0.67404
H         -2.75546       -3.70767        0.96878
H         -3.18430       -0.90688        1.77753
H         -2.98139       -2.21816        2.77669
H         -1.10203       -0.75823       -0.72817
H         -1.09044       -1.61225        0.68515
C         -2.64788       -2.15413       -0.53481
C         -3.18752       -2.71818        0.78240
N         -1.24504       -1.70762       -0.33269
N         -2.77589       -1.83493        1.86365
H         -0.50871       -2.32843       -0.71101
H          0.91623        2.51341        1.19445
H          1.52524        0.85025        1.39814
H          3.20697        2.53290        2.23217
H          3.82758        1.58192        0.87825
H          2.86650        4.34587        0.70580
H          4.29808        3.72936        0.20557
H          0.55205        1.44080       -0.82919
H          1.94178        2.39758       -1.04072
C          1.69345        1.80502        0.89830
C          3.09322        2.34444        1.15708
N          1.54902        1.57859       -0.56491
N          3.31276        3.52252        0.31475
H          2.07859        0.72507       -0.84975
