38
2sa2eda_266.log	Energy: -1117802.6388421
S          0.22332        1.55010        0.52959
O         -0.15165        0.88716        1.77389
O          1.68957        1.79591        0.41670
O         -0.33869        0.94926       -0.69431
O         -0.45605        3.02164        0.51989
H         -0.12203        3.51918        1.27932
S          3.60739       -0.55740       -0.39357
O          4.87201       -1.13971       -0.72822
O          2.41353       -1.39387       -0.35562
O          3.75137        0.16292        1.01437
O          3.34457        0.65328       -1.38777
H          2.96396        0.74299        1.15130
H          2.60775        1.20364       -1.02723
H         -0.01911       -3.25012        0.97558
H          0.18460       -1.56403        1.52328
H         -2.04124       -2.63228        2.25161
H         -2.19923       -1.13316        1.34528
H         -2.94763       -3.76971        0.44318
H         -3.51044       -2.27397       -0.03099
H          0.64268       -1.99973       -0.88234
H         -1.05020       -2.30350       -1.01336
C         -0.41393       -2.23365        0.90649
C         -1.90050       -2.18262        1.26238
N         -0.29333       -1.81033       -0.51406
N         -2.67619       -2.82410        0.20462
H         -0.43297       -0.78177       -0.61093
H         -5.75828        1.03286       -0.54615
H         -5.21834        0.30942        0.97687
H         -3.73846        2.16129        0.29101
H         -2.86238        0.63596        0.34215
H         -3.69947        2.02144       -2.07729
H         -2.22522        1.44188       -1.64868
H         -5.74491       -1.32119       -0.82307
H         -4.43353       -0.74831       -1.62831
C         -4.96177        0.42923       -0.08132
C         -3.64020        1.18225       -0.19982
N         -4.83333       -0.89237       -0.70173
N         -3.22371        1.26421       -1.59817
