38
2sa2eda_122.log	Energy: -1117819.1915191
S          1.04930        1.69600       -0.90245
O          2.37950        2.19926       -1.18826
O          0.96780        0.30482       -1.70759
O          0.82113        1.32629        0.52954
O         -0.07405        2.53614       -1.39641
H         -1.44690        2.52760       -0.64607
S         -1.60532       -2.11227       -0.25776
O         -2.93435       -1.99799        0.33643
O         -0.51773       -2.47733        0.66546
O         -1.64150       -3.40032       -1.25622
O         -1.27561       -0.94801       -1.12067
H         -2.44743       -3.34103       -1.78609
H          0.10904       -0.16267       -1.51979
H          3.17121       -2.52111        0.15709
H          2.51255       -1.30051       -0.96687
H          4.90340       -0.79863       -0.38976
H          3.80153        0.48031        0.11449
H          5.14418       -1.43611        1.86671
H          4.91255        0.16984        2.06784
H          0.99858       -1.76527        0.90291
H          2.23540       -1.21396        1.94847
C          2.91018       -1.46625        0.03438
C          4.09871       -0.55419        0.31456
N          1.83578       -1.15263        1.00893
N          4.48368       -0.68016        1.72316
H          1.49006       -0.16883        0.87243
H         -4.06466        1.53002        0.45494
H         -2.87234        0.60910       -0.51283
H         -2.74134        0.06857        1.95651
H         -1.23662        0.70554        1.27457
H         -2.98074        2.08390        3.13506
H         -1.35346        2.16326        2.95242
H         -2.99880        3.15949       -0.83501
H         -2.27219        3.20112        0.68037
C         -3.00124        1.36087        0.26542
C         -2.26480        0.96071        1.54190
N         -2.40500        2.65153       -0.18446
N         -2.23248        2.11268        2.45238
