38
2sa2eda_21.log	Energy: -1117824.4809596
S         -2.39393       -1.37383        0.26436
O         -1.74461       -2.29382        1.22037
O         -3.31815       -0.41845        0.87520
O         -1.43477       -0.77989       -0.69373
O         -3.28887       -2.31833       -0.71984
H         -3.96698       -2.74857       -0.18154
S          2.50434        1.36337        0.18799
O          1.41852        0.64182        0.88658
O          3.66622        0.54806       -0.16691
O          1.97974        2.19566       -0.91632
O          3.00563        2.40135        1.33970
H          3.81293        2.82830        1.02252
H          1.04393       -3.76224       -0.51448
H          0.35923       -2.31187       -1.28846
H          2.76402       -2.93189       -2.03428
H          2.54987       -1.27331       -1.48241
H          4.22462       -3.20249       -0.31040
H          4.01374       -1.61433        0.08632
H          0.01761       -2.27238        1.07118
H          1.71680       -2.41240        1.30406
C          1.15467       -2.68217       -0.64037
C          2.54785       -2.31714       -1.15423
N          0.96600       -2.06953        0.69829
N          3.53723       -2.49425       -0.09107
H          1.07570       -1.03312        0.66843
H         -1.49051        3.74420       -1.20771
H         -1.74012        2.38440       -2.32868
H         -3.86673        3.14116       -1.08790
H         -3.47585        1.42827       -0.90217
H         -3.56677        3.35371        1.16919
H         -3.34510        1.71343        1.25646
H          0.21621        2.11429       -0.76864
H         -0.92087        2.11961        0.47300
C         -1.77302        2.69099       -1.28140
C         -3.14742        2.44095       -0.65034
N         -0.77309        1.90928       -0.52248
N         -3.04590        2.57009        0.80056
H         -0.94020        0.88669       -0.62154
