22
2sa2a_40.log	Energy: -949695.8328047
S          1.19978       -0.57349        0.39639
O          0.00776       -1.22969        0.97306
O          2.41600       -0.65395        1.20186
O          1.42321       -0.95248       -1.02388
O          0.87042        1.01489        0.38134
H         -0.03353        1.15372        0.01692
S         -2.78134        0.22719       -0.28993
O         -3.97147        0.21327       -1.09751
O         -1.68404        1.12722       -0.59911
O         -3.17582        0.61854        1.22275
O         -2.26967       -1.23998       -0.16275
H         -3.99094        0.15621        1.46594
H         -1.34289       -1.27642        0.26907
N          4.05850       -0.52382       -1.12914
H          3.03671       -0.75372       -1.29152
H          4.61668       -0.62238       -1.97172
H          4.07541        0.47746       -0.73104
H          4.38142       -1.15748       -0.39992
N          3.76173        1.92430        0.09956
H          4.13638        2.82436       -0.18230
H          4.01150        1.77096        1.07313
H          2.74162        1.98217        0.08925
