28
2sa2ma_82.log	Energy: -998999.4140768
S         -2.52925       -0.88780        0.04516
O         -3.79853       -0.21885        0.20878
O         -1.57056       -0.97588        1.13208
O         -2.86122       -2.42271       -0.31744
O         -1.83036       -0.42766       -1.27199
H         -3.74597       -2.45394       -0.70702
H         -0.92089       -0.01116       -1.10439
S          1.46980        0.32223        0.11909
O          0.51573        0.59071       -0.97110
O          2.57790        1.29287        0.20069
O          0.69069        0.52019        1.49737
O          1.97371       -1.08134        0.10134
H         -0.18131        0.06038        1.44597
H          3.57451       -1.06061        0.36419
N         -1.79892        2.12056        0.49066
H         -2.53884        2.23528        1.17444
C         -2.13449        2.79069       -0.76181
H         -2.30327        3.87425       -0.67202
H         -1.32325        2.62808       -1.47679
H         -3.03762        2.33432       -1.17631
H         -0.94532        2.49682        0.88885
N          4.51283       -0.55705        0.37929
H          4.16236        0.41461        0.49901
C          5.21063       -0.71392       -0.91675
H          6.12003       -0.11357       -0.92481
H          5.44932       -1.76517       -1.07384
H          4.53288       -0.37187       -1.69824
H          5.07540       -0.84208        1.17690
