28
2sa2ma_21.log	Energy: -999026.6558630
S         -2.15135       -1.40516        0.02533
O         -3.09170       -2.48358       -0.08583
O         -2.63506       -0.12101        0.55121
O         -0.95206       -1.88836        0.92175
O         -1.50119       -1.15041       -1.38245
H         -0.12718       -1.30452        0.79902
H         -0.87993       -0.34095       -1.34977
S          1.18334        0.83312       -0.18457
O          2.48303        0.98432       -0.90574
O          0.01689        0.88653       -1.13163
O          1.18441       -0.54920        0.47639
O          1.01323        1.88729        0.85421
H          2.66967       -1.46796        0.07855
H         -0.54941        2.27170        0.94249
N          3.60513       -1.27560       -0.33865
H          3.83702       -1.96896       -1.04492
C          4.64183       -1.13002        0.70470
H          5.57398       -0.79947        0.24741
H          4.29542       -0.37694        1.41203
H          4.79018       -2.07978        1.21838
H          3.36311       -0.33027       -0.77886
N         -1.60174        2.39637        0.85817
H         -1.98994        1.43635        0.73707
C         -1.92657        3.23977       -0.31547
H         -3.00808        3.30353       -0.43504
H         -1.50049        4.23290       -0.17342
H         -1.47327        2.76527       -1.18494
H         -1.96850        2.78322        1.72454
