28
2sa2ma_08.log	Energy: -999032.2707048
S          2.57774        0.21178       -0.07178
O          2.66762       -0.90690       -1.01178
O          2.49490        1.54574       -0.70013
O          1.53729        0.01279        0.96965
O          3.94443        0.21609        0.80665
H          4.68534        0.39104        0.21040
S         -2.57798       -0.21197        0.07034
O         -2.49515       -1.54663        0.69733
O         -2.66712        0.90571        1.01162
O         -1.53803       -0.01224       -0.97133
O         -3.94521       -0.21510       -0.80724
H         -4.68579       -0.39063       -0.21074
N         -0.11575        2.14578        0.01230
H         -0.63718        1.40148       -0.50115
H         -0.00557        1.77091        0.95716
C         -0.84856        3.42860       -0.00560
H         -0.29306        4.17197        0.56584
H         -0.95107        3.75918       -1.03873
H         -1.83245        3.26375        0.43237
H          0.84523        2.18738       -0.37934
N          0.11529       -2.14613       -0.01349
H          0.00754       -1.77684       -0.96074
H          0.63417       -1.39841        0.49761
C          0.85059       -3.42740        0.01411
H          0.95213       -3.75050        1.04969
H          0.29755       -4.17588       -0.55304
H          1.83491       -3.26352       -0.42328
H         -0.84663       -2.18726        0.37615
