40
2sa2tma_21.log	Energy: -1097664.0088604
S          0.98990        0.14349       -0.67222
O          1.16027        0.83608        0.62607
O          0.81791       -1.40382       -0.37134
O         -0.17998        0.60284       -1.43137
O          2.26999        0.19086       -1.44917
H          3.37811       -0.13998       -0.47673
S         -2.67743       -1.47717        0.05232
O         -3.67940       -1.02985       -0.91439
O         -2.18125       -0.43791        0.96546
O         -3.45460       -2.49821        1.07165
O         -1.58420       -2.28984       -0.53856
H         -3.90197       -3.15967        0.52787
H         -0.15008       -1.71277       -0.42218
N         -1.80088        2.21988        0.15952
C         -1.05802        3.27036       -0.57787
H         -0.00363        3.19134       -0.31527
H         -1.17306        3.09514       -1.64642
H         -1.45900        4.24728       -0.29807
C         -3.24326        2.20700       -0.19404
H         -3.33772        2.04406       -1.26741
H         -3.71581        1.37677        0.32723
H         -3.68334        3.16478        0.09315
C         -1.58041        2.32714        1.62495
H         -2.13912        1.52981        2.11042
H         -0.51549        2.18387        1.80862
H         -1.91672        3.31230        1.95760
H         -1.40495        1.30916       -0.14579
N          4.14595       -0.33030        0.26693
C          3.59243       -1.31867        1.22802
H          2.70246       -0.88768        1.68673
H          3.30189       -2.21570        0.68159
H          4.35107       -1.55077        1.98007
C          5.33061       -0.85248       -0.44587
H          5.05771       -1.78059       -0.94888
H          5.64883       -0.12035       -1.18874
H          6.13753       -1.03739        0.26789
C          4.40529        0.97376        0.92015
H          4.77354        1.67490        0.17022
H          3.45768        1.33730        1.31984
H          5.14732        0.84602        1.71271
