28
2sa2ma_19.log	Energy: -999028.9590424
S         -2.06915       -0.40729       -0.27586
O         -3.02558        0.71466       -0.31195
O         -2.60975       -1.75090       -0.40695
O         -1.13046       -0.09309       -1.55145
O         -1.14279       -0.26808        0.90321
H         -0.19769       -0.37731       -1.37964
H         -0.21408       -1.46991        1.16404
S          2.22527        0.41158       -0.37662
O          3.57650        0.54895       -0.88611
O          1.41139       -0.68495       -0.94406
O          2.42430       -0.14848        1.18943
O          1.47269        1.67081       -0.23652
H          3.28660        0.16300        1.49355
H         -0.19213        2.10566       -0.22592
N          0.47576       -2.28205        1.31321
H          1.40571       -1.84959        1.25516
C          0.27385       -3.32884        0.27833
H          0.87018       -4.20875        0.52063
H         -0.78744       -3.57105        0.23241
H          0.59336       -2.91084       -0.67446
H          0.33688       -2.64633        2.25297
N         -1.06947        2.63367       -0.01744
H         -1.07857        3.46637       -0.60208
C         -1.10063        2.95711        1.42847
H         -2.00155        3.52684        1.65496
H         -1.11373        2.00790        1.96268
H         -0.20808        3.52513        1.68888
H         -1.89113        2.02806       -0.25948
