38
2sa2eda_265.log	Energy: -1117801.8617219
S         -2.08446       -1.34892       -0.58951
O         -3.48015       -1.75896       -0.73903
O         -1.06237       -2.32142       -1.00175
O         -1.84868        0.00494       -1.19471
O         -1.92053       -1.13204        0.99870
H         -3.18612        0.71015       -1.09112
H         -0.97079       -0.92843        1.20608
S          1.78060       -1.09805        0.63999
O          3.01129       -1.36348        1.39959
O          0.65216       -0.58098        1.42728
O          2.07675       -0.21402       -0.54485
O          1.36276       -2.50702        0.04433
H          3.58057       -0.07509       -0.60903
H          0.46541       -2.44828       -0.39107
H          4.64981        2.06564       -1.92435
H          4.99030        3.33949       -0.75325
H          6.05586        1.45521        0.18648
H          4.51026        1.54019        1.06742
H          5.21773       -0.33063       -1.09835
H          4.65324       -0.66901        0.44809
H          2.65943        3.36875       -1.29672
H          2.43881        1.85366       -0.69381
C          4.42606        2.41262       -0.89799
C          4.97025        1.38573        0.08928
N          3.02235        2.68761       -0.64103
N          4.63002       -0.00199       -0.33586
H         -5.34987        1.41980        0.86612
H         -4.14650        0.10524        0.99497
H         -3.40371        2.13596        2.27502
H         -2.30485        1.72317        0.95816
H         -4.15631        3.98033        1.02114
H         -2.61518        3.91518        0.48092
H         -4.84787        0.48697       -1.30107
H         -4.24691        2.06648       -1.18728
C         -4.32595        1.11650        0.62833
C         -3.30577        2.10160        1.18361
N         -4.17318        1.10252       -0.85123
N         -3.48618        3.40071        0.52785
