38
2sa2eda_297.log	Energy: -1117784.1293271
S         -2.98510       -1.18785       -0.09969
O         -4.11149       -0.29725        0.06309
O         -2.18439       -1.60692        1.03444
O         -3.56828       -2.56234       -0.70151
O         -2.08568       -0.69124       -1.26977
H         -4.37160       -2.36118       -1.20164
H         -1.10731       -0.62741       -1.00835
S          1.21757       -0.49895        0.46543
O          0.42012       -0.69581       -0.75656
O          1.46961        0.91123        0.82151
O          0.41582       -1.15987        1.67176
O          2.50330       -1.25834        0.43301
H         -0.54338       -1.23792        1.45266
H          3.63427       -0.24492        0.81551
H          6.17061       -0.60814       -0.15852
H          6.36815        0.41813       -1.57775
H          5.59409        1.91405        0.08524
H          4.14473        1.54498       -0.88650
H          4.81520        0.51431        1.79199
H          3.41736        1.28837        1.27150
H          5.16821       -1.50065       -2.26689
H          3.95139       -1.23599       -1.18953
C          5.61616       -0.02257       -0.91597
C          4.89991        1.12760       -0.21781
N          4.68987       -0.78922       -1.72855
N          4.18439        0.65607        1.00604
H         -1.26833        3.58809        0.63302
H         -0.35130        2.47891       -0.40963
H         -2.23832        3.63371       -1.55507
H         -2.34713        1.86601       -1.63641
H         -4.40618        3.24035       -0.96279
H         -4.06885        1.91860       -0.07444
H         -0.75479        1.41291        1.61943
H         -2.36774        1.65875        1.54020
C         -1.31454        2.63159        0.08800
C         -2.41539        2.73041       -0.96052
N         -1.53777        1.49029        0.97777
N         -3.72897        2.84429       -0.32152
