22
2sa2a_10.log	Energy: -949708.2573353
S          2.27304       -0.05745        0.11791
O          1.46551        0.08237       -1.14421
O          3.47923        0.73851        0.15555
O          1.31992        0.62518        1.24854
O          2.39553       -1.49014        0.47168
H          0.44898        0.16634        1.26855
H          1.12972       -2.30335       -0.19985
S         -2.29459        0.06743        0.26070
O         -1.13894       -0.62092        0.89739
O         -3.60487       -0.27655        0.77078
O         -2.04669        1.51142        0.07786
O         -2.21121       -0.58917       -1.25806
H         -0.62881        2.16743       -0.44094
H         -3.09800       -0.54529       -1.64039
N          0.18564       -2.43814       -0.65883
H         -0.05432       -3.41102       -0.82031
H          0.21552       -1.90420       -1.52875
H         -0.50438       -1.95777       -0.04395
N          0.33043        2.46773       -0.75515
H          0.81637        1.59401       -1.10888
H          0.85697        2.78452        0.05898
H          0.28254        3.19671       -1.46062
