38
2sa2eda_289.log	Energy: -1117795.4982613
S          3.45880        0.68616        0.19621
O          3.46452       -0.59201       -0.48988
O          4.30576        1.76621       -0.23563
O          2.00128        1.23406        0.30817
O          3.83275        0.31068        1.71778
H          1.31823        0.46680        0.40572
H          4.05925        1.12222        2.19429
S          0.23194       -1.71278       -0.50041
O          0.33546       -0.63718        0.54608
O          0.14589       -1.13367       -1.84483
O          1.55356       -2.58520       -0.38676
O         -0.85611       -2.65220       -0.17330
H          2.32986       -1.98593       -0.46749
H         -2.29647       -1.83961       -0.52477
H         -2.62968        3.70694       -1.50856
H         -1.92934        4.20910        0.01521
H         -0.36918        2.74816       -1.08766
H         -0.97808        1.88956        0.32503
H         -2.05328        1.50728       -2.37583
H         -0.92961        0.54669       -1.70111
H         -3.94521        2.08532       -0.18060
H         -3.43049        2.86389        1.18179
C         -2.35170        3.34648       -0.50864
C         -1.26458        2.28276       -0.65553
N         -3.57288        2.95509        0.18264
N         -1.72723        1.15088       -1.47904
H         -4.67153       -0.30297        0.39927
H         -4.63594       -2.07523        0.43440
H         -3.99144       -1.12904        2.61103
H         -2.68380       -2.08149        1.91981
H         -1.40841       -0.21979        1.54029
H         -2.68320        0.84033        1.68203
H         -3.56925       -1.43966       -1.53500
H         -2.65331       -0.20842       -0.85900
C         -4.01690       -1.17558        0.48984
C         -3.24019       -1.14563        1.81198
N         -3.09284       -1.16930       -0.67658
N         -2.31070       -0.05266        1.97861
