38
2sa2eda_200.log	Energy: -1117810.0253189
S          0.85520        1.94584        0.41648
O          0.82959        1.24749       -0.89794
O         -0.47427        2.30165        0.89405
O          1.69966        1.22412        1.39466
O          1.57209        3.37454        0.16745
H          2.51799        3.23435        0.02186
S          2.99607       -1.36527       -0.51456
O          4.02726       -2.27161       -0.92347
O          1.66983       -1.88323       -0.17399
O          3.53753       -0.54286        0.71920
O          2.81910       -0.27914       -1.64860
H          2.84608        0.10458        1.03969
H          2.04735        0.32310       -1.42982
H         -0.53186       -1.63513        2.32548
H         -0.77919        0.10391        2.02761
H         -2.75755       -1.08684        3.18918
H         -3.16455       -0.18998        1.73263
H         -3.49010       -2.95892        2.12534
H         -3.84856       -2.06123        0.77033
H          0.04522       -1.22761        0.08086
H         -1.42258       -2.04089        0.15768
C         -1.13749       -0.89873        1.79255
C         -2.62657       -1.06878        2.10336
N         -0.95207       -1.14578        0.34071
N         -3.13617       -2.28126        1.46458
H         -1.43243       -0.39905       -0.23648
H         -4.38117        0.28825       -2.75798
H         -5.62132        0.30706       -1.50242
H         -4.07342        2.16380       -1.20978
H         -4.00975        1.06325        0.17040
H         -2.02052        1.10029       -1.99535
H         -1.80845        1.65056       -0.48173
H         -4.87270       -1.89436       -1.69916
H         -3.30711       -1.48094       -1.57252
C         -4.55647        0.13031       -1.68132
C         -3.76112        1.15940       -0.89141
N         -4.24034       -1.23614       -1.25490
N         -2.31602        0.95544       -1.03276
