28
2sa2ma_04.log	Energy: -999030.9619020
S          2.58716       -0.21408        0.11776
O          2.34739       -1.52797        0.75301
O          3.97132        0.08909       -0.18664
O          1.60036        0.05591       -0.96038
O          2.08801        0.90514        1.22804
H          2.66204        0.84389        2.00303
S         -2.46912        0.14535        0.21790
O         -2.33125       -1.02967        1.09953
O         -2.13184        1.42428        0.87974
O         -1.81060       -0.01267       -1.08898
O         -4.04406        0.23699       -0.16550
H         -4.55285        0.29948        0.65448
N         -0.14735       -2.21608       -0.16638
H         -0.21138       -1.46300       -0.86261
H          0.77961       -2.08943        0.29852
C         -0.29565       -3.54815       -0.78484
H         -0.22873       -4.31101       -0.00991
H         -1.26519       -3.60717       -1.27876
H          0.50290       -3.69396       -1.51172
H         -0.91104       -2.00295        0.50175
N         -0.03067        2.21099       -0.74061
H          0.58330        1.36237       -0.80482
H         -0.55478        2.25306       -1.61366
C          0.77275        3.42462       -0.48445
H          0.11699        4.29279       -0.41964
H          1.30424        3.27962        0.45472
H          1.49540        3.55531       -1.28970
H         -0.74014        2.02867        0.00186
