34
2sa2dma_89.log	Energy: -1048333.8617239
S         -3.53015        0.20924       -0.14874
O         -4.93567        0.46489        0.03286
O         -3.05724       -1.07901       -0.61981
O         -2.96910        1.25873       -1.23954
O         -2.78849        0.61514        1.15738
H         -3.47402        2.07987       -1.15518
H         -1.84201        0.20789        1.21519
S          0.24899       -1.14919        0.33736
O          1.46888       -1.78588        0.87377
O         -0.49336       -0.39277        1.38421
O          0.50631       -0.33957       -0.86200
O         -0.67425       -2.38529       -0.07591
H          3.23539        0.56862       -0.15005
H         -1.55235       -2.03772       -0.34591
N          3.50531       -0.45240       -0.32373
C          4.78588       -0.73547        0.34800
C          3.50430       -0.70978       -1.77833
H          2.74600       -1.02302        0.12501
H          5.56673       -0.09176       -0.06232
H          4.67181       -0.54360        1.41550
H          5.05493       -1.78220        0.19740
H          4.23645       -0.05989       -2.26258
H          3.75839       -1.75525       -1.96198
H          2.49954       -0.50722       -2.14945
N          2.75099        2.18183        0.20450
C          2.08130        2.10789        1.50996
C          1.84097        2.63030       -0.85798
H          3.52435        2.83735        0.27305
H          1.27827        1.36769        1.46756
H          2.79875        1.79499        2.27336
H          1.64401        3.07034        1.80955
H          1.05269        1.88332       -0.97981
H          1.38305        3.60320       -0.63057
H          2.39116        2.71291       -1.79944
