28
2sa2ma_81.log	Energy: -999000.5175773
S          2.88196       -0.28664        0.03185
O          3.65851        0.88346       -0.30773
O          2.09910       -0.99292       -0.96405
O          3.91764       -1.38769        0.58563
O          2.02819       -0.00977        1.30927
H          4.69351       -0.92595        0.93295
H          1.04061       -0.17057        1.15200
S         -1.41169       -0.55800       -0.07633
O         -2.00517        0.77494       -0.38116
O         -0.47252       -0.53163        1.05728
O         -2.47883       -1.57530        0.06731
O         -0.60086       -1.00984       -1.36750
H         -3.99511       -0.88865       -0.24878
H          0.36518       -0.84601       -1.25225
N         -4.53629        0.00844       -0.35916
H         -3.71989        0.64319       -0.54137
C         -5.23094        0.37161        0.89597
H         -5.69308        1.35260        0.78987
H         -5.98644       -0.37872        1.12657
H         -4.48545        0.39829        1.69004
H         -5.15549       -0.03332       -1.16461
N          0.76877        1.88494       -0.82750
H          1.47237        2.18026       -1.49538
C          0.74167        2.77337        0.33093
H          0.51219        3.82414        0.09753
H         -0.01077        2.40713        1.03499
H          1.71305        2.73736        0.83090
H         -0.13521        1.88110       -1.28803
