40
2sa2tma_20.log	Energy: -1097666.5604457
S         -2.45242       -1.45548       -0.60277
O         -1.11781       -1.07900       -1.14411
O         -2.83921       -2.83745       -0.77943
O         -2.35024       -1.14631        0.99341
O         -3.48480       -0.46363       -1.03031
H         -1.40901       -1.06400        1.27683
H         -3.12761        0.88154       -0.40920
S          1.37640       -0.47107        1.00017
O          2.57801       -0.85694        1.73764
O          0.12400       -0.39613        1.77202
O          1.60354        0.79621        0.21572
O          1.19738       -1.62086       -0.09484
H          3.04220        0.69192       -0.30315
H          0.31309       -1.50210       -0.55538
N         -2.92689        1.85178        0.02085
C         -3.53089        2.83652       -0.90103
H         -3.04288        2.75036       -1.87223
H         -4.59302        2.61527       -1.01225
H         -3.39606        3.84469       -0.50088
C         -3.56870        1.86325        1.35567
H         -4.64105        1.70930        1.23059
H         -3.15388        1.03968        1.93612
H         -3.37730        2.82166        1.84498
C         -1.45246        2.01262        0.11640
H         -1.05483        1.29864        0.83743
H         -1.00910        1.79966       -0.85591
H         -1.22520        3.03462        0.43096
N          4.06576        0.58512       -0.63666
C          4.23813        1.47781       -1.80198
H          3.53827        1.17500       -2.58151
H          4.02196        2.50326       -1.50017
H          5.26342        1.40633       -2.17342
C          4.91988        0.97481        0.51117
H          4.73082        2.02228        0.74871
H          4.63664        0.35282        1.36122
H          5.97130        0.83169        0.24943
C          4.25881       -0.84317       -0.99948
H          4.09269       -1.44652       -0.10728
H          3.51712       -1.11721       -1.74968
H          5.27096       -0.98061       -1.38832
