38
2sa2eda_22.log	Energy: -1117824.7954548
S          0.08955       -2.10327       -0.62951
O         -0.50062       -1.10739       -1.54594
O          1.54706       -1.92982       -0.46459
O         -0.65163       -2.28585        0.62493
O         -0.10402       -3.54141       -1.35638
H          0.34010       -3.50750       -2.21461
S         -0.08423        2.41135       -0.50959
O          1.27668        2.56017       -1.08007
O         -0.02878        1.48905        0.67365
O         -0.82474        3.63697       -0.29925
O         -0.95788        1.59356       -1.59965
H         -0.64285        0.66379       -1.64445
H          3.40255        1.60023        1.44154
H          1.98253        0.56795        1.67362
H          4.01702       -0.43281        2.78256
H          3.40344       -1.46376        1.48240
H          5.79776        0.21324        1.35399
H          5.60586       -1.34986        0.90969
H          2.27504        1.33723       -0.62860
H          3.73776        0.43355       -0.66262
C          2.97532        0.61698        1.22622
C          3.89027       -0.50704        1.69470
N          2.80810        0.51351       -0.24280
N          5.14680       -0.44811        0.94464
H          2.28216       -0.35717       -0.46102
H         -3.39834        1.13353       -0.08348
H         -2.77309       -0.33857       -0.83899
H         -5.21192       -0.58007       -0.25878
H         -4.21063       -1.74475        0.61434
H         -5.34831        0.70007        1.76130
H         -5.47229       -0.83723        2.30748
H         -1.39327        0.66749        1.02228
H         -2.64608        0.08572        2.04572
C         -3.19638        0.07190        0.07796
C         -4.44522       -0.67932        0.52032
N         -2.17128       -0.03625        1.14575
N         -4.85781       -0.18536        1.83516
H         -1.70593       -0.96423        1.10701
