28
2sa2ma_23.log	Energy: -999024.8543837
S          1.03288        1.12350       -0.00658
O          0.48459        2.34750       -0.62109
O          0.22188        0.74237        1.19691
O          1.14861       -0.03107       -0.93700
O          2.47767        1.46561        0.46423
H          3.02638        0.56751        0.59637
S         -1.69979       -1.76003       -0.01039
O         -2.45060       -2.97749        0.07710
O         -2.42206       -0.50123       -0.23931
O         -0.84500       -1.59828        1.30326
O         -0.62706       -1.92957       -1.14899
H         -0.39199       -0.69153        1.31915
H          0.02754       -1.16530       -1.14329
N         -2.07030        2.16749        0.26683
H         -1.98455        2.32812        1.26925
H         -1.13007        2.39184       -0.14741
C         -3.17547        2.93008       -0.35055
H         -3.19694        2.70102       -1.41522
H         -4.12092        2.63514        0.10371
H         -3.00646        3.99711       -0.20818
H         -2.19187        1.14023        0.13554
N          3.75389       -0.76300        0.62992
H          4.45928       -0.82933        1.35763
C          4.34080       -0.98462       -0.70272
H          4.81163       -1.96783       -0.80273
H          3.54678       -0.88485       -1.44451
H          5.08725       -0.21099       -0.89321
H          3.05320       -1.47359        0.82603
