38
2sa2eda_218.log	Energy: -1117809.8918978
S          3.06854       -0.08999        0.47648
O          1.86780        0.11842        1.29523
O          4.29660        0.53892        0.85814
O          3.32146       -1.63722        0.34118
O          2.72082        0.37517       -0.99691
H          2.47913       -2.11075        0.08514
H          1.82679        0.00314       -1.26357
S         -0.15024       -1.72534       -0.63142
O         -1.40890       -2.27833       -1.09299
O          0.96580       -2.65546       -0.41043
O          0.30584       -0.53747       -1.44364
O         -0.51202       -1.08865        0.81758
H         -0.61162        0.88104       -1.10458
H          0.32773       -0.74656        1.20254
H         -3.68165       -1.68384        1.24221
H         -4.98776       -0.79451        2.01229
H         -5.37600       -0.87940       -0.36383
H         -5.08456        0.79641        0.12336
H         -2.98599       -0.91970       -1.03558
H         -3.88231        0.13871       -1.88754
H         -2.20374        0.00453        1.62348
H         -3.36725        1.12114        2.03257
C         -4.11273       -0.68354        1.36116
C         -4.60695       -0.18418        0.00162
N         -3.12054        0.13797        2.03287
N         -3.50306       -0.03852       -0.96103
H         -1.54947        2.87160        0.88341
H         -0.46644        1.48989        1.16766
H          0.83499        3.61866        0.98417
H          1.25741        2.46757       -0.27832
H         -0.32802        4.89298       -0.63612
H          0.87724        4.29519       -1.56280
H         -2.20586        1.12370       -0.69155
H         -1.30272        2.35676       -1.49519
C         -0.74692        2.26439        0.45513
C          0.45874        3.12197        0.08239
N         -1.26572        1.62473       -0.77652
N          0.07865        4.03637       -0.99617
