28
2sa2ma_66.log	Energy: -999011.8043265
S         -1.11213       -1.58902       -0.14970
O          0.11365       -2.43009       -0.22861
O         -2.36995       -2.30424       -0.11600
O         -1.03565       -0.85836        1.30467
O         -1.05372       -0.47730       -1.13672
H         -0.12639       -0.51258        1.42380
H         -2.43420        0.50333       -0.94829
S          2.50421       -0.01358        0.16231
O          3.89563        0.25816        0.40264
O          1.51797        0.21483        1.21027
O          1.98351        0.97123       -1.01836
O          2.36068       -1.42212       -0.44967
H          2.56703        0.88995       -1.78611
H          1.38285       -1.82754       -0.38303
N         -2.97876        1.28833       -0.51481
H         -2.17448        1.91749       -0.16415
C         -3.81739        0.79236        0.60275
H         -4.33422        1.63182        1.06865
H         -4.53374        0.06150        0.22926
H         -3.15869        0.30520        1.32151
H         -3.52640        1.76413       -1.22725
N         -0.61765        2.42708        0.25412
H         -0.41965        2.31779        1.24517
C         -0.11068        3.72298       -0.21411
H          0.96435        3.84673       -0.04440
H         -0.29933        3.81771       -1.28651
H         -0.64076        4.53191        0.29501
H         -0.09312        1.67737       -0.19824
