34
2sa2dma_69.log	Energy: -1048342.2240406
S          1.19521       -0.27836        0.72830
O          2.33888       -0.82088        1.45956
O          0.00288        0.07519        1.51807
O          1.62160        0.88802       -0.13579
O          0.78153       -1.42776       -0.28870
H          3.03101        0.55549       -0.62018
H         -0.14057       -1.24253       -0.66475
S         -2.76658       -1.00793       -0.24689
O         -1.56842       -0.78087       -1.11407
O         -3.70810       -1.99874       -0.71069
O         -2.19334       -1.57336        1.14336
O         -3.37747        0.32308        0.07666
H         -1.44779       -1.00499        1.44026
H         -2.52388        1.50693       -0.15508
N         -2.02596        2.46546       -0.31293
C         -1.04985        2.35170       -1.42295
C         -1.43138        2.91288        0.96879
H         -2.77544        3.10040       -0.58461
H         -0.20992        1.74492       -1.08272
H         -1.53637        1.85989       -2.26485
H         -0.70107        3.34935       -1.70104
H         -0.70750        2.15913        1.28287
H         -0.94627        3.88168        0.83219
H         -2.22458        2.98682        1.71334
N          4.03138        0.23240       -0.89543
C          3.97086       -1.20600       -1.26717
C          4.93526        0.51291        0.24744
H          4.31247        0.78238       -1.70568
H          3.65543       -1.76243       -0.38453
H          3.22400       -1.33418       -2.05028
H          4.95308       -1.53699       -1.60925
H          4.52256        0.00109        1.11740
H          5.94090        0.15452        0.02013
H          4.94817        1.58781        0.42899
