38
2sa2eda_142.log	Energy: -1117821.6958027
S         -1.20001        1.62979        0.80634
O         -1.23227        1.20297       -0.62955
O          0.23539        1.71280        1.24118
O         -2.01059        2.78473        1.10576
O         -1.83209        0.42037        1.65043
H         -1.21368       -0.35250        1.65072
S          1.19980       -1.62820        0.80832
O          1.23138       -1.20273       -0.62802
O         -0.23534       -1.71083        1.24388
O          2.01060       -2.78282        1.10837
O          1.83215       -0.41793        1.65095
H          1.21382        0.35501        1.65012
H          3.14459        2.02509       -2.44478
H          3.07150        2.93991       -0.91337
H          4.96156        1.43956       -0.83727
H          3.75730        0.81124        0.29191
H          4.89541       -0.73016       -1.47936
H          3.29119       -0.92635       -1.23127
H          0.90812        1.88219       -1.80496
H          1.48232        0.45086       -1.17456
C          2.97984        1.95101       -1.36858
C          3.97864        0.96388       -0.77480
N          1.57943        1.48851       -1.14696
N          3.99734       -0.26886       -1.55311
H          1.21141        1.73573       -0.20203
H         -3.14210       -2.02568       -2.44520
H         -3.06921       -2.94256       -0.91496
H         -4.96080       -1.44437       -0.83718
H         -3.75732       -0.81548        0.29253
H         -4.89737        0.72583       -1.47771
H         -3.29341        0.92396       -1.22934
H         -0.90558       -1.88325       -1.80124
H         -1.48218       -0.45155       -1.17407
C         -2.97829       -1.95295       -1.36877
C         -3.97845       -0.96757       -0.77432
N         -1.57864       -1.48919       -1.14522
N         -3.99868        0.26576       -1.55162
H         -1.21245       -1.73513       -0.19936
