38
2sa2eda_101.log	Energy: -1117823.5679521
S          1.02105       -1.76503       -0.57505
O          0.02995       -2.84259       -0.71106
O          0.87556       -0.70350       -1.59050
O          0.74589       -1.05534        0.84912
O          2.41043       -2.25413       -0.42501
H          3.22186       -1.25800        0.54836
S         -1.10602        1.89377       -0.42204
O         -1.40770        3.28832       -0.19628
O         -2.23367        1.05523       -0.90961
O          0.00194        1.87431       -1.58814
O         -0.44953        1.21314        0.74844
H          0.27996        0.94060       -1.72908
H          0.24369       -0.18612        0.74338
H         -3.10693       -2.65612        1.24951
H         -1.68705       -1.63182        1.56580
H         -3.99503       -0.79180        2.47516
H         -2.98628        0.37398        1.61515
H         -5.54990       -0.22023        0.94904
H         -4.45256        0.43703       -0.07752
H         -1.61371       -2.19499       -0.68235
H         -3.26648       -1.80862       -0.89797
C         -2.65504       -1.67896        1.06401
C         -3.57938       -0.53833        1.49598
N         -2.40512       -1.58253       -0.39984
N         -4.65020       -0.36727        0.51142
H         -2.18224       -0.58706       -0.66027
H          5.03865        1.08382        0.80378
H          4.58536        0.18177       -0.66701
H          3.39144        2.45111       -0.42630
H          2.30667        1.07639       -0.58672
H          2.74308        2.64362        1.80550
H          1.39562        1.84486        1.28755
H          4.46399       -0.98097        1.66541
H          3.04024       -0.07625        1.76839
C          4.21886        0.58905        0.27642
C          3.03579        1.54610        0.07712
N          3.72829       -0.52765        1.13047
N          2.41059        1.79005        1.37321
