28
2sa2ma_49.log	Energy: -999013.5520847
S         -2.49338        0.34702       -0.19820
O         -1.24664        0.92360        0.31014
O         -3.33001        1.14990       -1.05319
O         -2.24108       -1.01869       -0.84881
O         -3.29332        0.00161        1.15699
H         -1.43117       -1.58779       -0.38701
H         -4.17481       -0.32791        0.92893
S          0.95434       -1.76992        0.14334
O          1.22976       -1.24315       -1.21681
O         -0.45365       -2.27325        0.23314
O          1.95242       -2.65309        0.69683
O          0.98312       -0.45474        1.10757
H          3.19307        1.15093       -2.06491
H          0.14976        0.04332        0.95996
N          0.97640        2.82315       -0.24252
H          0.86962        3.70428       -0.73651
C          1.25280        3.07233        1.18148
H          0.45645        3.63218        1.68323
H          1.37070        2.11359        1.69207
H          2.18945        3.62722        1.28182
H          0.08313        2.33478       -0.32250
N          2.77810        0.92911       -1.16275
H          2.11026        1.71997       -0.87405
C          3.81081        0.70230       -0.12436
H          3.29964        0.42908        0.79846
H          4.46255       -0.11726       -0.42660
H          4.39210        1.61347        0.02126
H          2.18592        0.05934       -1.26902
