38
2sa2eda_51.log	Energy: -1117825.2790449
S          0.83183        1.86978       -0.98783
O          1.36991        3.16953       -1.30743
O          1.54695        0.69649       -1.55351
O          0.63083        1.64339        0.49492
O         -0.65080        1.82691       -1.60425
H         -1.52085       -0.25007        0.96852
H         -0.94180        0.88205       -1.69517
S         -0.83206       -1.87106       -0.98587
O         -1.37069       -3.17083       -1.30442
O         -1.54700       -0.69804       -1.55237
O         -0.63052       -1.64356        0.49658
O          0.65048       -1.82908       -1.60266
H          1.52056        0.25044        0.96804
H          0.94152       -0.88440       -1.69491
H          3.27854       -2.13249        0.64371
H          3.01346       -0.81354       -0.52399
H          5.18790       -0.51244        0.70324
H          4.05928        0.81055        1.00034
H          4.71122       -1.33390        2.88023
H          4.64379        0.27860        3.13897
H          1.04273       -1.32427        0.96178
H          2.02982       -0.74683        2.22490
C          3.11861       -1.05718        0.53179
C          4.23689       -0.25378        1.18436
N          1.84787       -0.71466        1.21626
N          4.21454       -0.48508        2.63085
H         -3.27721        2.13373        0.64209
H         -3.01302        0.81367       -0.52456
H         -5.18774        0.51530        0.70304
H         -4.06018       -0.80843        1.00078
H         -4.71025        1.33759        2.87952
H         -4.64390       -0.27480        3.13921
H         -1.04200        1.32437        0.96074
H         -2.02948        0.74866        2.22447
C         -3.11803        1.05822        0.53103
C         -4.23690        0.25615        1.18423
N         -1.84754        0.71543        1.21588
N         -4.21421        0.48827        2.63057
