22
2sa2a_24.log	Energy: -949701.7908188
S         -1.65945       -1.02196       -0.15012
O         -3.02863       -1.42709       -0.01975
O         -0.74065       -2.28126       -0.01795
O         -1.24521       -0.25027       -1.32205
O         -1.30829       -0.15597        1.14343
H         -0.55508        1.44500       -1.39044
H         -0.34713        0.13809        1.12516
S          2.19421       -0.07133        0.23568
O          3.51559        0.06339        0.80442
O          1.12504        0.76143        0.87359
O          2.23069        0.65565       -1.24208
O          1.73689       -1.45186       -0.00518
H          2.99275        0.31638       -1.73080
H          0.22966       -2.01863       -0.07577
N         -0.28596        2.32013       -0.91108
H          0.45525        2.03545       -0.24613
H         -1.13717        2.63992       -0.36335
H          0.05705        3.01545       -1.56624
N         -2.56673        2.65711        0.68498
H         -3.45065        2.61844        0.18525
H         -2.65034        3.38376        1.38918
H         -2.46534        1.76594        1.17134
