38
2sa2eda_39.log	Energy: -1117824.0102459
S          2.48357        0.75341        0.09469
O          3.53308       -0.22146       -0.20205
O          2.07215        1.58246       -1.05857
O          1.31675        0.22203        0.82984
O          3.11611        1.79045        1.18572
H          3.99990        2.03577        0.88030
S         -2.77503       -0.97860        0.18744
O         -2.38460       -1.98405        1.19916
O         -3.35670        0.24632        0.73051
O         -1.70419       -0.75347       -0.81329
O         -3.92878       -1.68952       -0.71984
H         -4.70566       -1.82307       -0.16023
H         -2.00129        2.26188        0.69103
H         -0.32747        1.91334        1.16947
H         -0.79847        4.38137        1.31936
H          0.45594        4.02176        0.12816
H         -2.32923        4.69248       -0.49165
H         -0.96036        5.37628       -1.07260
H         -1.11736        0.84804       -0.92986
H         -1.12533        2.41588       -1.59466
C         -0.95134        2.43182        0.44094
C         -0.61160        3.91218        0.34485
N         -0.70677        1.80636       -0.88564
N         -1.36895        4.50396       -0.76030
H          0.31735        1.73469       -1.06263
H          0.18914       -4.11439       -0.37221
H         -0.26532       -2.63293       -1.25268
H          2.04103       -3.62516       -1.88376
H          2.05585       -1.92503       -1.42891
H          3.39006       -4.01599       -0.09315
H          3.43634       -2.39105        0.18739
H         -0.66569       -2.35592        1.07266
H          0.97366       -2.77321        1.39700
C          0.45267       -3.06988       -0.55754
C          1.89579       -2.93697       -1.04427
N          0.31818       -2.35143        0.73415
N          2.82399       -3.19175        0.05748
H          0.61149       -1.35658        0.64718
