34
2sa2dma_55.log	Energy: -1048344.4880446
S          0.18409        1.78421       -0.11759
O          1.37138        2.59735       -0.28690
O          0.09275        0.66572       -1.11167
O          0.43736        1.04140        1.31726
O         -1.11266        2.47328        0.02258
H         -0.37709        0.55102        1.54293
H         -2.48892        1.59082        0.20021
S         -2.74638       -0.53566        0.06322
O         -3.87381       -1.41633        0.11387
O         -3.24716        0.93517        0.28667
O         -1.61102       -0.77924        0.97607
O         -2.16234       -0.53892       -1.39981
H          0.16359       -1.22252        0.27372
H         -1.29401       -0.01461       -1.40478
N          1.04058       -1.72997        0.10446
C          0.92220       -2.45334       -1.17713
C          1.32556       -2.58845        1.26892
H          1.82980       -0.98319        0.00884
H          0.09815       -3.16705       -1.12717
H          0.73144       -1.72098       -1.96118
H          1.85822       -2.97806       -1.37749
H          0.53388       -3.32996        1.38819
H          2.28445       -3.08836        1.11915
H          1.37534       -1.96024        2.15882
N          3.13460        0.02086       -0.13127
C          4.09488       -0.45612       -1.12490
C          3.73660        0.24295        1.18470
H          2.73648        0.90574       -0.44802
H          4.46848       -1.44334       -0.83098
H          3.60107       -0.54615       -2.09566
H          4.95853        0.21449       -1.23282
H          4.10231       -0.70865        1.58660
H          4.58056        0.94477        1.14584
H          2.97660        0.64565        1.85722
