38
2sa2eda_148.log	Energy: -1117819.6587376
S         -0.79307        1.55440       -1.09964
O         -1.46114        2.79815       -1.40842
O          0.43682        1.24913       -1.86856
O         -0.54481        1.34544        0.36914
O         -1.84421        0.38619       -1.50354
H         -1.13316       -0.06295        0.98489
H         -1.34832       -0.46782       -1.53990
S          0.94062       -2.07443       -0.58273
O          1.56604       -3.34005       -0.88933
O         -0.45133       -1.88707       -1.05904
O          1.02112       -1.71265        0.88382
O          1.82720       -0.94582       -1.30896
H          2.17466       -0.70114        1.26752
H          1.26681       -0.15813       -1.55909
H          4.57315        1.10942        1.26532
H          3.92952        0.16491       -0.11093
H          3.39959        2.75032       -0.05540
H          2.07696        1.64952       -0.41706
H          2.29462        3.31865        1.86892
H          1.01330        2.42715        1.31274
H          3.48923       -0.62743        2.31440
H          2.37675        0.65390        2.27819
C          3.66668        0.77267        0.75523
C          2.76941        1.96179        0.36541
N          2.89546       -0.05589        1.71939
N          2.00734        2.40815        1.53464
H         -3.12533       -1.46849        2.70405
H         -2.34002        0.09606        3.05522
H         -4.64630        0.35910        2.01263
H         -3.35917        1.11530        1.07254
H         -5.04841       -0.97670        0.21429
H         -3.83240       -0.23484       -0.62786
H         -0.84270       -1.49126        1.77430
H         -1.96622       -1.44336        0.56725
C         -2.71784       -0.55521        2.26385
C         -3.76577        0.15125        1.39679
N         -1.59676       -0.92549        1.37603
N         -4.08114       -0.68695        0.24529
