38
2sa2eda_169.log	Energy: -1117815.7423255
S         -2.12743        1.70055        0.01860
O         -1.85384        0.97142        1.29163
O         -2.07402        0.71496       -1.11892
O         -3.30590        2.53660        0.01978
O         -0.88360        2.68327       -0.21062
H         -0.06966        2.13166       -0.24793
S          1.20874       -0.51778       -0.76637
O          1.13793       -1.47336        0.36315
O          1.18950        0.89237       -0.31333
O          2.38120       -0.81849       -1.63003
O         -0.05859       -0.74417       -1.68289
H         -0.80085       -0.06982       -1.49276
H         -2.77892       -3.33283        1.24923
H         -2.86857       -2.03216        2.47239
H         -4.93193       -2.20846        0.95522
H         -4.17092       -0.61682        0.97439
H         -4.58560       -2.16749       -1.27564
H         -3.58525       -0.85441       -1.19025
H         -0.71327       -2.02054        1.12090
H         -1.67084       -1.74924       -0.19289
C         -2.83495       -2.25255        1.40346
C         -4.03564       -1.65704        0.65737
N         -1.61682       -1.64069        0.82862
N         -3.80483       -1.75976       -0.78098
H         -1.61155       -0.59750        1.03089
H          5.93009       -0.28632        0.93095
H          5.62465       -0.04806       -0.81165
H          5.00230        1.97037        0.65975
H          3.68193        1.36468       -0.34782
H          3.77287        1.33808        2.49887
H          2.51124        1.04024        1.46833
H          4.70799       -2.18193        0.19905
H          3.65671       -1.17186        1.04354
C          5.16020       -0.11694        0.17353
C          4.32236        1.12639        0.50602
N          4.23653       -1.28150        0.19211
N          3.48754        0.83818        1.66766
H          3.54848       -1.22563       -0.62429
