38
2sa2eda_60.log	Energy: -1117821.8178345
S          2.64259        1.42758       -0.16063
O          3.55602        0.41986        0.38203
O          1.65923        0.85086       -1.11734
O          1.98691        2.31385        0.81549
O          3.55460        2.46196       -1.02184
H          4.21190        1.94555       -1.50645
S         -2.17210       -1.20589       -0.48108
O         -1.43499       -0.15942       -1.23064
O         -1.54636       -2.53086       -0.67038
O         -2.46547       -0.83154        0.90161
O         -3.64661       -1.30244       -1.16184
H         -3.54710       -1.66912       -2.05076
H         -1.42094        3.87924        0.70059
H         -1.41622        3.25936       -0.97122
H         -3.75050        3.37459        0.08617
H         -3.29869        1.76897       -0.48627
H         -3.92599        2.47143        2.16025
H         -3.41940        0.99563        1.60027
H          0.26749        2.19977        0.60342
H         -1.09422        1.56908        1.38643
C         -1.63343        3.01323        0.06965
C         -3.07512        2.53263        0.26586
N         -0.72934        1.91819        0.49072
N         -3.22373        1.99198        1.61494
H         -0.78186        1.13826       -0.19480
H          2.08696       -1.28023        1.17132
H          0.30590       -1.37351        1.24388
H          1.35615       -3.35262        2.37612
H          0.36777       -3.81659        0.98356
H          3.30033       -3.69839        1.02328
H          2.33588       -4.94633        0.58054
H          1.33463       -0.81820       -0.96600
H          1.88878       -2.43520       -0.97244
C          1.20859       -1.84858        0.85482
C          1.28995       -3.30843        1.28160
N          1.16491       -1.79458       -0.63039
N          2.41531       -3.93690        0.58733
H          0.23455       -2.12094       -0.94701
