38
2sa2eda_183.log	Energy: -1117812.5506429
S          2.03078       -1.32896        0.72974
O          0.59025       -1.67066        0.90205
O          2.36128       -1.14312       -0.70198
O          2.48584       -0.26353        1.61257
O          2.85957       -2.62763        1.21941
H          2.64219       -3.36929        0.63780
S         -2.39231       -1.10031       -0.86799
O         -2.02980        0.21354       -1.42083
O         -3.51943       -1.77267       -1.45674
O         -1.16391       -2.06871       -0.92957
O         -2.56545       -0.91463        0.68540
H         -0.46100       -1.89208       -0.21948
H         -2.82532        0.06952        0.91675
H          1.38277        2.28216       -2.77261
H          0.57366        3.08488       -1.40021
H          2.94471        3.47659       -1.20861
H          2.48950        2.34932        0.07695
H          4.53445        1.84548       -1.39416
H          3.49839        0.59629       -1.18979
H         -0.25356        0.79340       -1.76650
H          1.26601        0.19654       -1.38080
C          1.25898        2.28217       -1.68797
C          2.61599        2.45127       -1.01358
N          0.62643        1.00418       -1.27960
N          3.59022        1.53154       -1.58165
H          0.34798        1.05505       -0.25135
H         -1.20535        2.22622        2.95420
H         -0.27199        3.19217        1.81584
H         -2.54126        3.56594        1.26605
H         -1.89827        2.51176       -0.01123
H         -3.52634        1.58383        2.24707
H         -4.00383        1.72889        0.69450
H          0.72804        1.04933        1.92600
H         -0.64620        0.27490        1.57669
C         -0.91516        2.30952        1.89474
C         -2.15827        2.56073        1.05006
N         -0.15451        1.15444        1.42676
N         -3.19730        1.53906        1.28490
