38
2sa2eda_115.log	Energy: -1117823.5932094
S         -0.82146        1.90526       -0.76981
O         -0.80996        1.66545        0.69647
O         -1.36211        0.68152       -1.46378
O         -1.41363        3.15332       -1.19070
O          0.72934        1.97572       -1.22424
H          1.09072        1.06957       -1.38642
S          1.12771       -1.67839       -0.84450
O          0.58183       -1.44183        0.54432
O          1.88987       -0.47200       -1.26357
O          1.79601       -2.94728       -1.00457
O         -0.16944       -1.72825       -1.79352
H         -0.53694       -0.81344       -1.87378
H          3.20257        1.53809        2.76399
H          2.42264       -0.01276        3.18363
H          4.75546       -0.27019        2.16529
H          3.49399       -1.13222        1.28731
H          5.14507        0.86650        0.24462
H          3.83523        0.17747       -0.49848
H          0.94818        1.53909        1.80390
H          2.08419        1.38780        0.61902
C          2.80530        0.60162        2.36596
C          3.86827       -0.13355        1.54040
N          1.68945        0.92833        1.45179
N          4.16494        0.64267        0.34207
H          1.21230        0.05786        1.11770
H         -2.82816       -1.24973        2.44814
H         -2.32905        0.39036        1.93045
H         -4.83470        0.20301        2.08837
H         -4.28494        0.55673        0.45006
H         -5.29919       -2.01594        1.39591
H         -5.63872       -1.21386        0.01046
H         -1.18812       -1.41184        0.67463
H         -2.72379       -1.84731        0.08190
C         -2.86132       -0.51548        1.63828
C         -4.29841       -0.21414        1.22691
N         -2.15528       -1.08941        0.47079
N         -4.90299       -1.42562        0.67291
H         -2.01795       -0.36478       -0.27310
