38
2sa2eda_195.log	Energy: -1117810.4570014
S          0.95514       -0.82128        0.10183
O          0.68024       -2.01132       -0.72235
O          1.10991        0.43101       -0.74529
O         -0.21426       -0.58694        1.04738
O          2.22168       -0.96745        0.90461
H          3.07004        0.26262        0.68185
S         -1.86063        2.06648        0.01458
O         -2.53380        3.33195        0.11530
O         -2.64064        0.86804       -0.29869
O         -0.71346        2.21079       -1.05507
O         -1.08468        1.80125        1.36267
H         -0.04633        1.44659       -0.98960
H         -0.69814        0.86025        1.34043
H         -3.38589       -3.55296       -0.44015
H         -2.65589       -3.15217        1.13845
H         -5.09137       -2.43053        0.93914
H         -3.99664       -1.08634        1.27037
H         -5.67062       -1.32641       -0.95027
H         -4.51222       -0.17232       -0.70013
H         -1.24307       -2.44899       -0.81107
H         -2.51231       -1.41206       -1.22083
C         -3.09349       -2.73922        0.22732
C         -4.28642       -1.82390        0.51373
N         -2.06183       -1.93317       -0.46014
N         -4.69854       -1.16968       -0.72430
H         -1.62335       -1.23834        0.18308
H          5.77308        0.07225        1.07415
H          6.55918       -0.13994       -0.48992
H          5.21077        1.77316       -0.81964
H          4.25661        0.44850       -1.53545
H          3.79327        1.78492        1.04891
H          2.73433        1.55626       -0.23242
H          5.67529       -2.24461        0.19703
H          4.13405       -1.66389        0.23361
C          5.59172       -0.20345        0.01808
C          4.67796        0.84337       -0.60891
N          5.05602       -1.53844       -0.18113
N          3.52983        1.16435        0.28700
