28
2sa2ma_24.log	Energy: -999023.9108228
S          1.34085       -1.55201        0.00452
O          0.21464       -2.34233       -0.52624
O          2.22302       -0.93750       -0.98555
O          0.88472       -0.58271        1.04330
O          2.29954       -2.60751        0.75807
H          1.74485       -3.24311        1.23161
S         -2.33258       -0.01572       -0.10151
O         -3.70132        0.37595        0.05333
O         -1.45489        0.76726       -0.97379
O         -1.67315       -0.06165        1.33594
O         -2.30540       -1.51472       -0.58296
H         -0.69852       -0.28601        1.27128
H         -1.36743       -1.84997       -0.64824
N          1.17840        1.66045       -1.24009
H          1.46926        2.02424       -0.28022
H          1.69858        0.77746       -1.37580
C          1.39722        2.63568       -2.32452
H          1.05126        2.21604       -3.26902
H          0.83931        3.54643       -2.10665
H          2.46040        2.86583       -2.39480
H          0.18439        1.38725       -1.16201
N          1.72704        2.26432        1.41246
H          1.82908        1.27765        1.64929
C          0.49861        2.79275        2.02250
H          0.47773        2.69585        3.11384
H          0.38679        3.84885        1.76476
H         -0.36199        2.25265        1.62026
H          2.54359        2.75198        1.76629
