22
2sa2a_16.log	Energy: -949703.9283985
S          2.27033       -0.51578        0.01173
O          3.53884       -1.16906        0.13113
O          2.23794        0.88527       -0.42406
O          1.38717       -1.36300       -0.98993
O          1.50718       -0.62953        1.38119
H          0.43361       -1.08059       -0.95546
H          0.65165       -0.09089        1.36283
S         -1.71846        0.53907        0.17045
O         -2.98267        0.13503        0.76368
O         -0.61604        0.81696        1.13917
O         -1.18448       -0.73524       -0.67155
O         -1.79565        1.64864       -0.81041
H         -1.84474       -1.54492       -0.56984
H         -0.46645        2.54244       -0.65282
N          0.47241        2.96083       -0.37476
H          0.75838        3.70953       -0.99954
H          1.16893        2.18221       -0.38441
H          0.38869        3.30192        0.58054
N         -2.91380       -2.62290       -0.31115
H         -3.42897       -2.92671       -1.13098
H         -3.54503       -2.09813        0.29227
H         -2.59450       -3.44559        0.19016
