34
2sa2dma_54.log	Energy: -1048344.2263355
S         -0.28094        1.79031       -0.29149
O          0.99865        2.07437       -0.96584
O         -1.40234        1.42065       -1.14578
O         -0.10348        0.83785        0.84649
O         -0.74399        3.19287        0.37213
H          0.04167        3.65518        0.69507
S          2.84664       -0.63298        0.21399
O          4.06778       -1.31700        0.52284
O          1.72805       -1.36103       -0.38134
O          2.31759        0.05219        1.54162
O          3.20579        0.58775       -0.72057
H          1.39570        0.40177        1.38201
H          2.39548        1.13744       -0.90204
N         -1.04619       -1.68565       -0.37444
C         -0.96148       -1.81641       -1.84475
C         -0.89839       -2.95937        0.35497
H         -0.30110       -1.04779       -0.06530
H         -1.75597       -2.48232       -2.18749
H         -1.08680       -0.82434       -2.27978
H          0.01581       -2.21990       -2.11065
H         -1.68173       -3.64938        0.03596
H          0.08640       -3.37946        0.14779
H         -0.99346       -2.76415        1.42375
H         -1.97695       -1.21081       -0.11436
N         -3.35332       -0.32948        0.27592
C         -3.31701       -0.02188        1.70628
C         -4.65223       -0.81946       -0.17541
H         -3.09200        0.50658       -0.24657
H         -3.47517       -0.94176        2.27942
H         -2.33483        0.38633        1.95620
H         -4.08964        0.70197        2.00122
H         -4.87021       -1.77675        0.30921
H         -5.47142       -0.12463        0.05927
H         -4.62998       -0.97780       -1.25669
