38
2sa2eda_100.log	Energy: -1117821.4764191
S          0.64436        2.18100       -0.28732
O         -0.23188        2.69938        0.78053
O          1.88603        1.55138        0.18268
O         -0.11117        1.37863       -1.27352
O          1.20871        3.47432       -1.08326
H          0.45536        3.98754       -1.40535
S         -0.74048       -2.07810       -0.52685
O         -2.06058       -1.90609       -1.12581
O         -0.62973       -1.33345        0.78319
O         -0.16643       -3.41051       -0.44885
O          0.33136       -1.28896       -1.49092
H          0.10153       -0.32951       -1.53251
H         -3.58969        1.94968       -0.15056
H         -2.67671        0.70361       -1.03746
H         -5.08932        0.03345       -0.70886
H         -3.94679       -1.08141        0.04142
H         -5.63976        0.86165        1.43817
H         -5.34615       -0.70447        1.80529
H         -1.60955        1.60025        1.04686
H         -2.84972        0.76964        1.87528
C         -3.22425        0.91901       -0.12035
C         -4.36055       -0.07163        0.10403
N         -2.28195        0.81059        1.02158
N         -4.92595        0.14118        1.43987
H         -1.70589       -0.06849        0.95230
H          3.58196       -1.61060        2.10607
H          3.40856       -2.79683        0.78206
H          5.48992       -1.55423        0.50401
H          4.38991       -1.11255       -0.80110
H          5.61487        0.72612        0.55168
H          4.01165        0.98269        0.33911
H          1.32419       -1.51440        1.20224
H          2.09284       -0.11884        0.75567
C          3.44443       -1.73392        1.03054
C          4.56277       -1.01744        0.28370
N          2.12838       -1.15266        0.67078
N          4.69548        0.35392        0.75262
H          1.86425       -1.33479       -0.31136
