34
2sa2dma_62.log	Energy: -1048341.3942346
S          0.51442        2.07919       -0.25282
O          0.79924        1.92860        1.18490
O          1.26269        1.18367       -1.12735
O         -0.95660        2.08456       -0.52391
O          1.02020        3.55647       -0.67860
H          0.51753        4.21250       -0.17630
S         -2.35091       -0.58753        0.23241
O         -3.42583       -1.53506        0.27437
O         -1.06915       -0.91724        0.83728
O         -2.09128       -0.20884       -1.29505
O         -2.86960        0.77983        0.84864
H         -1.58487        0.64378       -1.31608
H         -2.18951        1.47231        0.66448
N          1.80106       -0.72508        1.26945
C          1.52967       -1.65416        2.38221
C          3.22165       -0.35985        1.10572
H          1.46936       -1.17185        0.34091
H          1.87137       -1.21531        3.32165
H          0.45610       -1.83511        2.42111
H          2.05971       -2.59165        2.20180
H          3.59070        0.11651        2.01562
H          3.80014       -1.26241        0.89800
H          3.29507        0.33392        0.26797
H          1.25792        0.14684        1.38797
N          1.08506       -1.87505       -1.12102
C          0.49715       -3.20697       -0.99113
C          2.16802       -1.81476       -2.10106
H          0.36146       -1.21382       -1.39322
H          1.25843       -3.90462       -0.62583
H         -0.31970       -3.17016       -0.26766
H          0.11077       -3.59400       -1.94464
H          3.00878       -2.42409       -1.75198
H          1.86378       -2.19069       -3.08845
H          2.49773       -0.77918       -2.20450
