38
2sa2eda_220.log	Energy: -1117804.8336695
S          0.00102       -2.32574        0.25793
O          1.03609       -1.86842       -0.68443
O          0.40414       -2.33215        1.66059
O         -1.31051       -1.66431        0.01091
O         -0.34027       -3.85948       -0.14457
H          0.36532       -4.42176        0.20320
S         -2.63445        1.04688       -0.63938
O         -3.74777        1.89652       -0.93766
O         -1.29600        1.63132       -0.57464
O         -2.92689        0.31324        0.73681
O         -2.61228       -0.14048       -1.68969
H         -2.30362       -0.44866        0.83387
H         -2.03583       -0.86687       -1.33460
H          1.54716        0.40067       -2.91801
H          1.70142        2.12959       -2.56975
H          3.88100        1.06581       -3.20716
H          3.92150        1.82841       -1.61393
H          3.53579       -1.06995       -1.96173
H          4.85807       -0.31683       -1.33956
H          0.37638        1.08442       -0.90091
H          1.50785       -0.10282       -0.64233
C          1.98457        1.13080       -2.23081
C          3.50145        0.98713       -2.17655
N          1.38956        0.89273       -0.89878
N          3.85889       -0.23728       -1.47923
H          1.80957        1.48598       -0.12215
H          0.99099        2.97707        3.05541
H          0.16394        2.98668        1.48446
H         -0.64442        1.14283        2.92384
H          0.08596        0.54100        1.44931
H          1.22805        0.35002        4.10937
H          1.17201       -0.75295        2.89030
H          2.64920        3.18288        1.37284
H          2.71717        1.63308        1.92698
C          0.87141        2.43151        2.10829
C          0.31372        1.03852        2.39691
N          2.15310        2.29804        1.39510
N          1.30252        0.23157        3.10549
