38
2sa2eda_203.log	Energy: -1117808.6726155
S          2.73425        0.56590        0.48580
O          2.73778        1.62563       -0.53532
O          1.57774        0.64057        1.38654
O          2.97068       -0.80173       -0.04341
O          4.06578        0.87783        1.35436
H          4.33087        0.05704        1.79105
S         -0.17690       -2.11363       -0.92627
O         -0.96521       -3.21595       -1.42408
O         -0.45771       -0.79757       -1.51863
O         -0.33071       -1.98621        0.63535
O          1.32795       -2.45827       -1.06292
H         -1.34279       -1.92445        0.88236
H          1.94651       -1.75303       -0.65623
H         -0.48509        3.76063       -1.52371
H         -0.30915        2.52125       -2.79233
H         -2.66921        3.08034       -2.51978
H         -2.39694        1.41898       -1.97936
H         -3.74487        2.94983       -0.45911
H         -2.45247        2.26499        0.29754
H          1.03823        2.00674       -0.80156
H         -0.36463        1.87921        0.11075
C         -0.70388        2.72609       -1.79504
C         -2.20313        2.47620       -1.73628
N          0.01191        1.83750       -0.84887
N         -2.73339        2.90105       -0.44526
H         -0.10053        0.84086       -1.11985
H         -2.47696       -0.07494        3.20671
H         -3.14623        1.37125        2.45997
H         -4.41228       -0.36188        1.53384
H         -3.24500        0.02925        0.25883
H         -3.03836       -2.24724        2.10655
H         -3.32408       -2.30802        0.50044
H         -0.76025        1.43166        2.41511
H         -0.64815        0.09374        1.53453
C         -2.56056        0.46889        2.25184
C         -3.34894       -0.38809        1.26540
N         -1.26248        0.88747        1.71877
N         -2.84856       -1.77536        1.22552
