38
2sa2eda_77.log	Energy: -1117823.9619339
S         -0.10411       -1.81513       -1.31624
O          0.92642       -1.61409       -0.28213
O         -1.39881       -2.28558       -0.78467
O         -0.22939       -0.67719       -2.24496
O          0.49808       -3.04421       -2.17993
H         -0.11169       -3.23345       -2.90665
S         -0.92797        2.33698       -0.44926
O         -1.82049        3.40501       -0.05485
O          0.32148        2.72404       -1.14031
O         -0.60669        1.36003        0.65179
O         -1.79272        1.45154       -1.49536
H         -1.77974        0.29817        0.84667
H         -1.22237        0.74109       -1.87169
H          2.94805        2.12904        1.06911
H          1.57045        1.11900        1.54198
H          3.71349        0.23536        2.53345
H          2.99967       -0.91749        1.40472
H          5.34822        0.74714        0.89536
H          5.11894       -0.84299        0.58513
H          1.56243        1.62228       -0.81693
H          3.07231        0.80497       -0.95066
C          2.51328        1.12847        0.99522
C          3.48659        0.05996        1.47429
N          2.19451        0.87891       -0.43101
N          4.66224        0.06054        0.60116
H          1.70016       -0.03077       -0.50949
H         -1.40118       -2.66174        2.10238
H         -1.63589       -2.05930        3.73928
H         -3.60045       -1.58052        2.31885
H         -2.85685       -0.08822        2.93133
H         -2.27798       -1.18028        0.22705
H         -3.39906        0.02226        0.54749
H          0.16559       -1.08821        1.64385
H         -0.26657       -0.07976        2.87564
C         -1.46613       -1.74811        2.70158
C         -2.70696       -0.95159        2.27677
N         -0.19855       -1.05122        2.59212
N         -2.55504       -0.43037        0.89449
