38
2sa2eda_45.log	Energy: -1117821.7111202
S         -2.56427       -1.69240       -0.02057
O         -3.12308       -0.72938       -0.97147
O         -1.78120       -2.78249       -0.64461
O         -1.84412       -1.06239        1.10909
O         -3.81823       -2.41657        0.71925
H         -4.35860       -2.84457        0.04141
S          2.13988        1.34804        0.06824
O          1.66297        2.60670        0.64074
O          2.94685        0.50685        0.95318
O          1.05839        0.59135       -0.63124
O          3.09896        1.73954       -1.19663
H          3.81181        2.30082       -0.86264
H         -2.39035        2.73995        1.58253
H         -0.60965        2.66188        1.70011
H         -1.33922        4.84192        0.72491
H         -0.35970        3.89132       -0.39232
H         -3.26331        4.26909       -0.55962
H         -2.13685        4.40560       -1.74022
H         -1.70354        0.62877        0.70391
H         -2.15287        1.60607       -0.57656
C         -1.45574        2.72048        1.01497
C         -1.33299        3.93602        0.10459
N         -1.46833        1.49759        0.18018
N         -2.38839        3.89121       -0.90566
H         -0.53868        1.31373       -0.24472
H          1.71086       -3.93492       -0.72448
H          1.70178       -2.64893       -1.95389
H          4.00136       -3.07821       -0.88300
H          3.44350       -1.40735       -0.77545
H          3.98865       -3.11819        1.39261
H          3.48105       -1.54174        1.41475
H         -0.12380       -2.47554       -0.27880
H          1.09309       -2.26142        0.88630
C          1.86556       -2.86713       -0.89693
C          3.25288       -2.42554       -0.42231
N          0.84872       -2.14068       -0.10342
N          3.30308       -2.46688        1.03669
H          0.88651       -1.11897       -0.30032
