38
2sa2eda_117.log	Energy: -1117820.2915557
S          2.25545       -1.49106       -0.25740
O          1.54948       -2.37747       -1.20701
O          3.21456       -0.57455       -0.88495
O          1.33854       -0.84037        0.69985
O          3.12324       -2.47660        0.70890
H          3.72751       -2.98262        0.14917
S         -2.42836        1.54871       -0.03457
O         -3.36130        0.49786        0.38305
O         -1.86582        2.36905        1.04010
O         -1.37472        1.05538       -0.97434
O         -3.26935        2.54491       -1.01072
H         -4.03008        2.87484       -0.51341
H         -3.09017       -1.53102       -1.06676
H         -2.29772       -3.00965       -1.66218
H         -3.91618       -3.31691        0.31215
H         -2.29878       -3.98588        0.57798
H         -3.13624       -1.34469        1.57976
H         -2.71998       -2.67833        2.47898
H         -1.06798       -0.70654       -0.88091
H         -0.97105       -1.62391        0.48123
C         -2.38872       -2.32811       -0.81546
C         -2.85871       -3.05303        0.45050
N         -1.07665       -1.68632       -0.54660
N         -2.58531       -2.20040        1.59805
H         -0.23722       -2.16899       -0.91532
H          2.30069        1.68067       -1.31496
H          1.59750        3.30811       -1.13193
H          4.01529        3.19977       -0.48242
H          2.98475        3.73527        0.85004
H          3.90169        0.95255        0.55832
H          4.38256        2.03060        1.71829
H          0.13787        1.59246       -0.28894
H          1.32144        1.00160        0.71887
C          2.02671        2.45797       -0.59822
C          3.24011        2.86946        0.22634
N          0.97374        1.86853        0.26613
N          3.62720        1.77252        1.09636
H          0.63653        2.50648        0.98803
