38
2sa2eda_91.log	Energy: -1117821.5861517
S         -2.98567        0.38555       -0.23531
O         -2.65633        1.50440       -1.12060
O         -3.08459       -0.92374       -0.91747
O         -2.14414        0.33422        0.98204
O         -4.46646        0.66798        0.37544
H         -5.09380        0.68466       -0.35999
S          2.57574       -0.44532       -0.18460
O          2.96612        0.51591        0.84655
O          2.59373       -1.85496        0.21577
O          1.30645       -0.05806       -0.87435
O          3.64521       -0.29264       -1.40567
H          4.50934       -0.57624       -1.07760
H          0.36188       -1.91742        1.23916
H         -1.40667       -2.03578        1.33081
H         -0.10132       -4.15165        2.01178
H         -1.30819       -4.43039        0.74783
H          1.54527       -3.97956        0.17660
H          0.70532       -5.38781       -0.04220
H          0.04383       -1.27906       -0.83101
H         -0.24756       -2.88795       -1.13629
C         -0.51685       -2.41798        0.83181
C         -0.35808       -3.93069        0.96719
N         -0.59649       -2.06863       -0.61729
N          0.62812       -4.37923       -0.01153
H         -1.56290       -1.79703       -0.88964
H          0.10816        3.35484        1.93030
H          1.31725        2.03842        1.88722
H          2.35822        4.21109        1.23617
H          2.40275        3.02355       -0.06604
H          0.62901        5.35246        0.06764
H          1.52623        4.80849       -1.18983
H         -0.85915        1.50671        0.74431
H         -0.46442        2.69741       -0.36363
C          0.77122        2.76819        1.28845
C          1.73463        3.66307        0.51821
N         -0.07249        2.03659        0.31599
N          0.97492        4.51780       -0.39241
H          0.49185        1.33553       -0.20810
