38
2sa2eda_120.log	Energy: -1117819.6434451
S         -2.50515        0.54310       -0.15783
O         -1.26380        0.29276        0.62798
O         -2.39374        1.70558       -1.04072
O         -3.04220       -0.67495       -0.77477
O         -3.54922        0.95822        1.02830
H         -4.39336        1.17869        0.61174
S          3.00967       -0.77292        0.12804
O          3.29395        0.41345        0.93500
O          2.65786       -1.98545        0.87752
O          2.04127       -0.49454       -0.97785
O          4.36244       -1.11592       -0.70916
H          5.07630       -1.25884       -0.07291
H          1.35720        3.40314       -1.48645
H         -0.25718        2.66762       -1.72224
H         -0.46197        4.94432       -0.71947
H         -1.08165        3.67834        0.33966
H          1.44384        5.12221        0.69639
H          0.28260        4.78492        1.80095
H          1.40943        1.15434       -0.63728
H          1.43344        2.22189        0.64819
C          0.46121        3.02718       -0.98503
C         -0.16643        4.09194       -0.09398
N          0.86722        1.88253       -0.13666
N          0.76187        4.42910        0.98355
H          0.03298        1.38830        0.24915
H         -1.49553       -2.42984       -1.49588
H         -0.21295       -3.67016       -1.49005
H         -2.39690       -4.51185       -0.59012
H         -1.08708       -4.63389        0.59068
H         -3.02237       -2.41566        0.57953
H         -2.90030       -3.61505        1.71515
H          0.59967       -1.55018       -0.65342
H         -0.61341       -1.48642        0.48093
C         -0.86574       -3.05932       -0.86343
C         -1.72512       -3.92227        0.05278
N         -0.02190       -2.13674       -0.06616
N         -2.39015       -3.07523        1.02814
H          0.61976       -2.61076        0.57755
