38
2sa2eda_240.log	Energy: -1117805.6596539
S         -1.68518       -1.80552       -0.53494
O         -1.69954       -2.43760        0.78027
O         -2.41798       -0.50100       -0.55137
O         -0.38272       -1.71602       -1.20662
O         -2.52381       -2.76240       -1.53925
H         -3.36565       -2.97754       -1.11440
S         -1.10050        2.31591       -0.32782
O          0.15668        1.61811       -0.10096
O         -1.12390        3.75012       -0.33527
O         -1.72717        1.80534       -1.69449
O         -2.15631        1.81451        0.75187
H         -1.94690        0.84394       -1.59220
H         -2.32808        0.85287        0.59382
H          2.12626       -0.09758       -2.47999
H          2.03974        1.25140       -1.33606
H          4.35086        1.02526       -2.29580
H          4.35201        0.75418       -0.55153
H          4.50876       -1.35329       -2.58201
H          5.51997       -1.06989       -1.32872
H          1.05119       -0.94582       -0.62164
H          2.62856       -1.48802       -0.51590
C          2.49522        0.27955       -1.52181
C          4.01722        0.33775       -1.50747
N          2.03552       -0.65329       -0.46731
N          4.55289       -1.01855       -1.62488
H          2.14138       -0.24395        0.50813
H          1.32041        0.81977        3.93326
H          0.97967        1.67288        2.41084
H         -0.88513        0.16344        3.04785
H         -0.16881       -0.23267        1.49239
H          0.16248       -1.76070        3.94802
H         -0.25904       -2.25257        2.44288
H          3.21594        0.68996        2.46933
H          2.52549       -0.79910        2.60082
C          1.18913        0.69368        2.84823
C          0.01744       -0.24024        2.56860
N          2.40036        0.13939        2.22056
N          0.33777       -1.61208        2.95968
