34
2sa2dma_79.log	Energy: -1048335.5240906
S          3.52504        0.34756        0.23585
O          4.85814        0.85865        0.04990
O          3.20713       -1.04079       -0.04177
O          3.12701        0.54060        1.78796
O          2.53439        1.28733       -0.51144
H          3.58668        1.32386        2.12222
H          1.60498        0.85875       -0.63971
S         -0.22672       -1.08870       -0.63157
O         -1.42227       -1.41151       -1.40248
O          0.24584        0.31406       -0.89027
O         -0.36761       -1.33073        0.82332
O          0.91331       -2.05664       -1.17565
H         -2.00125       -0.92311        1.19890
H          1.76930       -1.81998       -0.75345
N         -2.50447        1.56798       -0.58193
C         -2.67788        2.91272       -0.03803
C         -3.23999        1.35453       -1.83016
H         -1.51247        1.39962       -0.76492
H         -3.72801        3.06814        0.23145
H         -2.06872        3.02726        0.86255
H         -2.39179        3.69680       -0.75314
H         -4.31693        1.40673       -1.63549
H         -2.99353        2.10724       -2.59178
H         -2.99045        0.36483       -2.21788
N         -2.95559       -0.49740        1.17657
C         -3.31059        0.02486        2.50696
C         -3.91187       -1.47576        0.62022
H         -2.83932        0.33074        0.48401
H         -3.36188       -0.79314        3.22788
H         -2.54577        0.73593        2.82138
H         -4.27855        0.52737        2.45408
H         -4.01879       -2.31595        1.30914
H         -4.88007       -0.99187        0.47557
H         -3.51167       -1.82490       -0.33214
