22
2sa2a_13.log	Energy: -949709.4183157
S         -2.03610        0.02568       -0.34438
O         -1.22836        1.17366       -0.83844
O         -1.71781       -0.17009        1.12946
O         -3.44614        0.05095       -0.63214
O         -1.44356       -1.28042       -1.06017
H         -0.45872       -1.20102       -1.13663
S          2.03661       -0.02823       -0.34331
O          1.22867       -1.17933       -0.82989
O          1.71613        0.17882        1.12827
O          3.44697       -0.05689       -0.62904
O          1.44604        1.27265       -1.07022
H          0.46117        1.19460       -1.14432
N          0.16833       -2.00134        1.63990
H          0.13673       -2.59417        2.46370
H          0.35928       -2.54181        0.79446
H         -0.72333       -1.45464        1.49546
H          0.91647       -1.26864        1.68113
N         -0.17067        2.01345        1.62822
H         -0.91807        1.27990        1.67217
H         -0.13778        2.60739        2.45118
H          0.72115        1.46705        1.48380
H         -0.36423        2.55266        0.78255
