28
2sa2ma_22.log	Energy: -999027.5587173
S          1.56830       -1.68649       -0.06182
O          2.44110       -0.51364       -0.20741
O          2.17766       -2.97939        0.07422
O          0.61036       -1.43573        1.15767
O          0.59360       -1.73353       -1.29892
H          0.26668       -0.45228        1.14359
H         -0.03329       -0.93058       -1.28785
S         -1.12386        1.29500       -0.14087
O         -2.51673        1.46954        0.36229
O         -0.19143        0.91580        0.99160
O         -1.13527        0.13124       -1.13121
O         -0.59081        2.51945       -0.79030
H         -2.73292       -0.87532       -0.96022
H          1.03420        2.41550       -0.64568
N          2.04412        2.21947       -0.38566
H          2.14560        1.18393       -0.33780
C          2.34658        2.82297        0.93377
H          3.36367        2.56589        1.22910
H          2.22981        3.90449        0.86811
H          1.62807        2.41536        1.64362
H          2.65872        2.56811       -1.11769
N         -3.38733       -0.93932       -0.16135
H         -3.26870        0.05184        0.22146
C         -2.91276       -1.96096        0.80396
H         -3.49159       -1.88393        1.72350
H         -3.01971       -2.95432        0.36879
H         -1.85925       -1.76890        1.01039
H         -4.34048       -1.09877       -0.47713
