38
2sa2eda_248.log	Energy: -1117803.0799060
S         -0.20499       -0.99450        0.47883
O          0.26338       -0.40694       -0.78314
O         -1.42406       -1.82496        0.32359
O          0.85536       -1.68066        1.24140
O         -0.61067        0.22604        1.44863
H          2.45774       -1.38610        0.98941
H         -1.42775        0.64160        1.09311
S         -3.96512        0.32009       -0.34082
O         -2.88757        1.13473        0.19341
O         -4.93910        0.88684       -1.23580
O         -3.40533       -0.97616       -0.99554
O         -4.71849       -0.22084        0.97874
H         -2.58249       -1.33567       -0.48908
H         -5.53093       -0.67465        0.71222
H          1.75144        1.03081        1.32697
H          2.37838        2.37375        2.25499
H          0.85092        3.20098        0.57898
H          2.48081        3.74222        0.13989
H          1.08866        1.44125       -1.04879
H          1.45876        2.85301       -1.79102
H          3.97077        1.49120       -0.01550
H          4.46539        2.05418        1.44640
C          2.40822        1.90537        1.26713
C          1.83477        2.85970        0.22429
N          3.78454        1.45946        0.98772
N          1.77374        2.19873       -1.08260
H          5.02188       -1.93291       -0.43389
H          3.57334       -2.97160       -0.38288
H          3.50637       -1.84317       -2.48470
H          2.27467       -1.08853       -1.47999
H          4.60429        0.14673       -2.56660
H          3.26437        0.84840       -1.88465
H          3.92285       -1.76294        1.67375
H          3.75391       -0.25877        0.93640
C          3.92923       -1.93781       -0.40351
C          3.35660       -1.19799       -1.61046
N          3.50085       -1.29772        0.87225
N          3.96906        0.11676       -1.77994
