38
2sa2eda_295.log	Energy: -1117789.6666401
S          2.62000       -1.52118       -0.22922
O          3.79122       -0.99231       -0.88911
O          1.37246       -1.69873       -0.94985
O          3.00852       -3.00238        0.27266
O          2.38448       -0.81441        1.13898
H          3.96316       -3.03337        0.42557
H          1.49617       -0.32864        1.18554
S         -1.16268        0.17505        0.73192
O         -1.26758        1.23407       -0.29045
O          0.06446        0.22112        1.54146
O         -2.40478        0.08337        1.53925
O         -1.15947       -1.23043       -0.05503
H         -3.53528        0.81730        0.66186
H         -0.26580       -1.40256       -0.43343
H         -4.63272        0.51596       -2.08406
H         -3.28626       -0.37438       -1.32504
H         -5.42700       -1.70368       -1.24239
H         -4.80634       -1.31566        0.36397
H         -7.11895       -0.08131       -0.93051
H         -6.94932       -0.59776        0.61065
H         -3.44664        1.92838       -0.55202
H         -4.98270        1.55673        0.09457
C         -4.25673        0.09227       -1.14894
C         -5.25386       -0.88319       -0.53597
N         -4.06181        1.20294       -0.18034
N         -6.46505       -0.15100       -0.15835
H          2.07345        3.51740       -0.73826
H          1.35491        2.68696        0.65906
H          3.74607        3.34738        0.97197
H          3.43950        1.61726        1.21300
H          5.40485        2.30735       -0.23685
H          4.41091        1.18612       -0.87437
H          0.73368        1.44523       -1.16854
H          2.24711        1.39766       -1.80553
C          2.08838        2.58704       -0.14817
C          3.47610        2.41729        0.45889
N          1.72172        1.41125       -0.93667
N          4.46603        2.16093       -0.58986
