22
2sa2a_22.log	Energy: -949701.3355042
S          2.01491       -0.50434        0.00520
O          2.03515        0.03597       -1.35724
O          2.43321        0.40835        1.06961
O          0.71110       -1.16477        0.34264
O          3.08828       -1.70474       -0.06736
H          3.21358       -2.06031        0.82373
S         -2.31273       -0.34591       -0.00911
O         -1.97058        0.61789       -1.05072
O         -3.68068       -0.47695        0.39078
O         -1.78216       -1.77567       -0.44696
O         -1.43417       -0.02517        1.27910
H         -0.79737       -1.76232       -0.49921
H         -0.50548       -0.36215        1.12097
N          0.29085        2.17628       -1.47749
H          0.36564        2.53899       -0.47040
H          0.34170        2.92226       -2.16425
H          1.04597        1.47506       -1.61575
H         -0.60812        1.67172       -1.53378
N          0.43832        2.67505        1.23739
H          1.22203        2.06613        1.48221
H         -0.40054        2.26075        1.63821
H          0.58239        3.57530        1.68275
