38
2sa2eda_214.log	Energy: -1117809.8361938
S         -0.17841       -1.25843       -0.07547
O         -0.43320       -0.28321        1.02749
O         -0.48335       -0.70302       -1.39695
O          1.18285       -1.84347        0.04031
O         -1.15681       -2.47235        0.19190
H         -2.08419       -2.19035       -0.11732
S          3.66094        0.07426        0.07918
O          2.71403        1.16842       -0.10919
O          5.06060        0.36402        0.18141
O          3.23091       -0.74858        1.36750
O          3.45495       -0.97099       -1.09578
H          2.35770       -1.18169        1.18714
H          2.54435       -1.35129       -1.02553
H          0.15984        3.56850       -1.14833
H          0.36698        1.84566       -1.58029
H         -2.02453        2.75068       -1.93734
H         -1.87132        1.29904       -0.94669
H         -2.81427        3.85290       -0.08041
H         -2.89761        2.36296        0.66217
H          1.29194        2.33621        0.59264
H         -0.26585        2.86456        1.09056
C         -0.14514        2.54438       -0.91816
C         -1.66390        2.37259       -0.97444
N          0.27932        2.25205        0.47495
N         -2.29088        3.02562        0.17337
H          0.03268        1.25609        0.71963
H         -3.87841        0.24144       -1.05041
H         -5.35337       -0.73003       -1.03214
H         -5.41665        0.24070        1.06737
H         -4.65321       -1.30847        1.43224
H         -3.49017        0.56584        2.43615
H         -2.48931       -0.05387        1.31514
H         -4.08848       -2.65431       -0.74186
H         -3.20797       -1.79975       -1.81742
C         -4.35891       -0.62157       -0.58088
C         -4.50556       -0.34705        0.91328
N         -3.52988       -1.81191       -0.85280
N         -3.38105        0.42784        1.43636
