34
2sa2dma_92.log	Energy: -1048333.8055179
S          0.35064       -1.89521       -0.01798
O          1.43548       -2.84952       -0.14151
O         -1.00015       -2.47172        0.19683
O          0.61590       -0.78760        0.94238
O          0.29432       -1.17440       -1.47501
H          2.10579       -0.20689        0.61652
H         -0.48243       -0.57693       -1.47810
S         -2.86526        0.42869       -0.00773
O         -4.16743        0.99767       -0.23795
O         -1.81450        0.56480       -1.00457
O         -2.22861        1.12896        1.30217
O         -3.04311       -1.04993        0.41803
H         -2.90853        1.17493        1.98945
H         -2.16843       -1.61680        0.35486
N          1.78315        2.68833       -0.23771
C          0.77882        2.71103        0.83439
C          1.16960        2.46622       -1.55178
H          2.28163        3.57301       -0.24944
H          0.30880        1.72613        0.91018
H          1.26680        2.93947        1.78605
H         -0.01201        3.45120        0.65370
H          0.64614        1.50755       -1.53741
H          0.43428        3.23974       -1.81050
H          1.94379        2.43715       -2.32287
N          3.00779        0.25930        0.32909
C          3.51342       -0.39494       -0.89798
C          3.94647        0.22945        1.46451
H          2.70799        1.25663        0.10868
H          3.70499       -1.44852       -0.69132
H          2.74098       -0.33129       -1.66472
H          4.42493        0.10796       -1.22744
H          4.16878       -0.80811        1.71876
H          4.86799        0.75030        1.19675
H          3.48075        0.71873        2.32073
