38
2sa2eda_82.log	Energy: -1117824.8462203
S         -0.89271        1.70085       -0.14339
O         -0.73111        0.77597       -1.29104
O          0.29458        2.54589        0.06010
O         -2.17261        2.44537       -0.16911
O         -1.08531        0.77987        1.15719
H         -0.35970        0.07647        1.20540
S          0.95012       -1.97781        0.05238
O          0.79671       -0.96643        1.14758
O          2.04021       -1.55231       -0.86103
O          0.97966       -3.35546        0.48904
O         -0.41950       -1.84882       -0.81565
H         -0.49496       -0.91407       -1.12873
H         -5.60066       -0.35745        0.16273
H         -4.98415        0.85728       -0.98899
H         -4.25810       -1.52447       -1.56543
H         -2.90338       -0.42378       -1.29380
H         -3.74902       -2.56555        0.47289
H         -2.24288       -1.98911        0.14235
H         -4.61441        1.22541        1.55285
H         -3.42507        0.04877        1.32780
C         -4.70138        0.11410       -0.24203
C         -3.73548       -0.93690       -0.80179
N         -3.99245        0.79314        0.87523
N         -3.21158       -1.72234        0.30984
H         -3.31129        1.51915        0.50459
H          3.46323        1.99575        1.16521
H          2.67273        0.42290        1.46115
H          5.18081        0.18830        1.47930
H          4.42202       -0.74072        0.17951
H          5.90873        1.75869       -0.14331
H          6.01584        0.37231       -1.00632
H          1.75694        1.69851       -0.43306
H          3.25635        1.44830       -1.21209
C          3.31269        0.98402        0.77869
C          4.63708        0.27316        0.53008
N          2.59586        1.08981       -0.51624
N          5.37278        0.98389       -0.51880
H          2.29754        0.12430       -0.80253
