38
2sa2eda_136.log	Energy: -1117819.3144419
S         -2.66769        0.69347        0.37676
O         -3.94528        1.32244        0.12830
O         -1.80668        1.84126        1.15908
O         -2.67134       -0.48702        1.27634
O         -1.85312        0.39537       -0.84096
H         -1.50839       -1.56875        0.83181
H         -0.64783        1.48555       -1.24753
S          2.06480        0.39960        1.23023
O          1.72500       -0.83302        0.49003
O          3.31778        1.03033        0.84098
O          0.92577        1.35834        1.28195
O          2.22304       -0.15763        2.74749
H         -0.95920        1.46354        1.46770
H          2.52836        0.56828        3.30912
H         -1.79921       -2.88071       -1.12399
H         -0.68119       -1.56110       -1.50192
H          0.20967       -3.77300       -2.33602
H          1.26031       -3.07756       -1.09407
H         -0.58224       -5.31580       -0.70501
H          0.99237       -5.18790       -0.27566
H         -0.64128       -3.03699        1.02427
H          0.17782       -1.62471        0.66436
C         -0.79534       -2.48903       -0.93983
C          0.27488       -3.52200       -1.26901
N         -0.69904       -2.15779        0.50253
N          0.12737       -4.67093       -0.37422
H          2.58184        1.52780       -1.49064
H          2.54199        1.63616       -3.24309
H          1.34995        3.53572       -2.18030
H          0.25561        2.56662       -3.19987
H          0.47933        2.17196       -0.25698
H         -0.67291        3.11639       -0.98527
H          1.48712       -0.36240       -3.26126
H          1.56715       -0.43220       -1.61182
C          1.91985        1.44881       -2.36103
C          0.87262        2.55928       -2.29824
N          1.28471        0.13561       -2.40521
N         -0.03395        2.33841       -1.14494
