38
2sa2eda_107.log	Energy: -1117821.8560059
S          0.13048       -1.82814       -0.63637
O          1.50176       -1.62216       -1.14045
O          0.00016       -1.77103        0.82579
O         -0.86976       -0.99061       -1.33874
O         -0.24093       -3.36529       -0.98572
H         -0.06048       -3.51340       -1.92435
S         -0.50339        2.44171       -0.44489
O         -0.19945        3.82168       -0.74770
O          0.28081        1.85826        0.69712
O         -1.93705        2.09472       -0.26098
O         -0.00615        1.60705       -1.73879
H         -1.94729        0.86104        0.80119
H         -0.38135        0.69718       -1.69953
H          3.10797        0.64993        2.08508
H          2.18113       -0.77909        1.56335
H          4.60378       -1.35444        1.90228
H          4.09376       -1.57423        0.22538
H          5.73140        0.63393        1.23585
H          5.98486       -0.32219       -0.06678
H          1.71570        1.25035        0.27417
H          3.34380        1.16898       -0.29635
C          2.98158       -0.08900        1.28883
C          4.28459       -0.82189        0.99696
N          2.55194        0.63531        0.07004
N          5.26836        0.13291        0.48524
H          2.24796       -0.06047       -0.63486
H         -3.44428       -1.01031        2.57955
H         -3.85044        0.71329        2.32532
H         -5.19998       -0.74398        0.86737
H         -4.16056        0.32331       -0.08178
H         -4.27366       -2.28026       -0.51308
H         -2.82844       -1.51919       -0.65087
H         -1.48861        0.50474        2.35284
H         -1.46155       -0.70868        1.24477
C         -3.41750       -0.18085        1.86986
C         -4.16013       -0.54773        0.58969
N         -1.99717        0.12199        1.55783
N         -3.58222       -1.74421       -0.00537
