38
2sa2eda_06.log	Energy: -1117826.8102873
S         -1.08388        2.18410       -0.32359
O         -0.00283        2.87096        0.40444
O         -0.61435        1.47767       -1.53585
O         -1.97729        1.36518        0.50763
O         -2.07348        3.35730       -0.85340
H         -1.55034        3.98025       -1.37585
S          1.08627       -1.59715       -0.84109
O         -0.02474       -2.31357       -1.49938
O          0.62855       -1.03213        0.47029
O          2.36083       -2.29733       -0.77404
O          1.41709       -0.29345       -1.73875
H          0.63754        0.31468       -1.74772
H         -2.44844       -2.98454        0.82272
H         -1.51837       -1.65483        1.54428
H         -3.80188       -1.86413        2.61861
H         -3.59257       -0.31316        1.79385
H         -5.20292       -2.55968        0.83999
H         -5.57164       -0.96514        0.88740
H         -1.50015       -1.67624       -0.90146
H         -3.18423       -1.35730       -0.83840
C         -2.41572       -1.90250        0.97662
C         -3.69179       -1.39093        1.63446
N         -2.28775       -1.26080       -0.35323
N         -4.82103       -1.62652        0.73225
H         -2.10481       -0.24726       -0.20990
H          3.79292        1.88042        1.89567
H          2.63420        0.90239        2.83253
H          4.79169       -0.35277        2.25240
H          3.32255       -1.14318        1.67203
H          5.42155       -0.13358        0.06456
H          4.06881       -0.97571       -0.39172
H          1.56186        2.00817        0.83498
H          2.66493        1.12868       -0.09345
C          3.15512        0.99306        1.87718
C          3.96503       -0.26611        1.53964
N          2.15644        1.16514        0.80117
N          4.41694       -0.19157        0.15465
H          1.50282        0.33971        0.77557
