22
2sa2a_15.log	Energy: -949704.6163873
S         -1.59828       -0.95704       -0.01483
O         -2.59655        0.02850       -0.39662
O         -0.68370       -1.42799       -1.07090
O         -0.83583       -0.54797        1.21170
O         -2.46523       -2.24630        0.41601
H         -1.88509       -3.02008        0.43343
S          2.29929        0.06926       -0.11137
O          3.72810        0.15000       -0.06035
O          1.50824        1.29558       -0.25398
O          1.90818       -0.90930       -1.28012
O          1.80341       -0.67494        1.19547
H          0.92349       -1.06981       -1.29276
H          0.80392       -0.69239        1.23683
N         -0.61523        2.23718        1.22270
H         -1.27324        2.62687        0.46876
H         -0.56621        2.84113        2.03746
H         -0.92943        1.28429        1.47608
H          0.31834        2.10059        0.79540
N         -2.26096        2.92122       -0.88829
H         -1.74616        3.19802       -1.71892
H         -3.07481        3.52341       -0.81729
H         -2.58659        1.96305       -1.03042
