38
2sa2eda_64.log	Energy: -1117821.5966186
S          0.18130        2.24365       -0.46897
O         -1.22714        2.36002       -0.03576
O          1.13246        2.30751        0.66222
O          0.44349        1.14315       -1.40067
O          0.47138        3.55970       -1.37133
H          0.23496        4.33963       -0.85123
S         -0.17549       -2.40347       -0.49410
O         -1.55678       -2.36080       -0.98146
O         -0.06053       -1.54450        0.75950
O          0.47200       -3.69123       -0.36204
O          0.74689       -1.60475       -1.56295
H          0.45528       -0.67111       -1.61540
H          3.29603       -1.45606       -0.28619
H          2.77692        0.08259       -0.98542
H          5.25493        0.08472       -0.53927
H          4.41503        1.31713        0.40882
H          5.38593       -1.24577        1.44662
H          5.67814        0.26124        2.01209
H          1.40836       -0.81205        0.94855
H          2.76970       -0.39149        1.89467
C          3.20765       -0.38338       -0.09933
C          4.54488        0.23716        0.28354
N          2.25970       -0.19557        1.02754
N          4.98210       -0.32215        1.56405
H          1.91043        0.78448        1.03768
H         -3.51729       -0.90384        2.07801
H         -2.91961        0.74131        2.37839
H         -5.36690        0.76723        1.88270
H         -4.44660        1.64682        0.65702
H         -5.57784       -1.03467        0.30220
H         -5.73327        0.28631       -0.65943
H         -1.52035       -0.63244        0.80628
H         -2.79645       -0.61387       -0.24232
C         -3.35021        0.07759        1.62595
C         -4.64704        0.64899        1.06073
N         -2.37225       -0.09057        0.53345
N         -5.10769       -0.20023       -0.03042
H         -2.03925        0.83162        0.18754
