38
2sa2eda_173.log	Energy: -1117817.0599385
S          0.20200        1.94883       -1.01341
O          0.40218        3.34475       -1.32793
O          0.95738        0.98344       -1.86107
O          0.39669        1.61046        0.43490
O         -1.35477        1.64327       -1.30550
H         -0.75054        0.85758        1.24862
H         -1.48081        0.66100       -1.30863
S         -0.55941       -1.95276       -0.68396
O         -1.66602       -1.00705       -0.98096
O         -0.86427       -3.35593       -0.85332
O          0.60806       -1.62364       -1.74672
O          0.05046       -1.61423        0.64989
H          0.68482       -0.63098       -1.85964
H          1.65790       -1.41310        0.50660
H         -3.11119        1.04694        3.05264
H         -2.48924        2.25765        1.89699
H         -4.64682        1.12475        1.15173
H         -3.32134        0.95059        0.00844
H         -4.62288       -1.14942        1.42374
H         -3.47295       -1.25389        0.23151
H         -0.93265        0.40078        2.83913
H         -1.63392       -0.52988        1.66898
C         -2.70345        1.19807        2.05010
C         -3.67270        0.64922        0.99750
N         -1.42894        0.44065        1.95259
N         -3.72947       -0.80302        1.10354
H          4.29699       -0.34922       -0.46387
H          2.68090        0.35302       -0.76734
H          3.89300        1.58079        1.06304
H          2.39395        0.84307        1.60874
H          5.10568       -0.12450        2.18122
H          3.85437        0.07163        3.20923
H          2.73294       -2.12036       -0.52121
H          3.18378       -1.86603        1.08736
C          3.30796       -0.16044       -0.03609
C          3.40788        0.61920        1.26637
N          2.69233       -1.48103        0.27245
N          4.09762       -0.20406        2.26558
