38
2sa2eda_09.log	Energy: -1117824.3068194
S          2.16329        1.64273        0.13199
O          3.29014        0.94237        0.74991
O          1.33104        0.81525       -0.76652
O          1.35188        2.43810        1.07801
O          2.80830        2.71681       -0.91166
H          3.44279        3.25820       -0.42278
S         -2.27091       -1.78001        0.05852
O         -3.31964       -1.02473       -0.62315
O         -1.48725       -2.67605       -0.81997
O         -1.39392       -0.97262        0.93689
O         -3.01832       -2.75050        1.13402
H         -3.67559       -3.27264        0.65459
H         -1.13718        3.10535       -0.85427
H         -1.17836        1.40127       -1.32950
H         -3.36557        2.57232       -1.83219
H         -3.55523        1.22859       -0.69872
H         -3.61687        4.07742       -0.01127
H         -4.63569        2.87991        0.44427
H         -0.32367        2.02240        0.97767
H         -1.97016        2.26207        1.33668
C         -1.61923        2.14264       -0.66339
C         -3.13388        2.23075       -0.81557
N         -1.30325        1.76185        0.73703
N         -3.66800        3.09601        0.23954
H         -1.41258        0.73278        0.87453
H          2.13836       -3.66101       -0.83946
H          2.13626       -2.39894       -2.09294
H          4.37897       -2.65399       -0.85637
H          3.70163       -1.02313       -0.82515
H          4.15865       -2.68510        1.41864
H          3.66418       -1.10528        1.35410
H          0.18403       -2.29824       -0.54109
H          1.30432       -2.01058        0.69086
C          2.23739       -2.58809       -1.02253
C          3.55701       -2.04572       -0.46441
N          1.12596       -1.91460       -0.31596
N          3.50440       -2.04173        0.99511
H          1.12431       -0.89210       -0.51086
