38
2sa2eda_73.log	Energy: -1117821.9595700
S         -2.18864        1.77167       -0.21690
O         -1.06815        1.35938        0.72664
O         -3.19863        0.70039       -0.25228
O         -2.64603        3.12602       -0.00714
O         -1.46026        1.80287       -1.65901
H         -1.12292        0.90985       -1.88539
S          0.57891       -1.62562       -1.50196
O         -0.36635       -2.57002       -0.87675
O         -0.07572       -0.52715       -2.22622
O          1.64237       -1.17303       -0.57913
O          1.40952       -2.47132       -2.60281
H          0.79556       -2.75105       -3.29629
H         -1.86013       -1.25613        3.19279
H         -2.48085       -2.73724        2.42028
H         -0.25494       -3.07445        3.49939
H         -0.23997       -3.43341        1.77098
H          1.52255       -1.83621        2.95623
H          1.10713       -1.63766        1.38888
H         -2.74419       -0.89339        0.87078
H         -1.25304       -0.35606        1.12305
C         -1.69684       -1.97680        2.38874
C         -0.31757       -2.62129        2.50580
N         -1.80638       -1.24165        1.10879
N          0.74496       -1.62884        2.34175
H         -1.45648       -1.80411        0.30940
H          1.95376        2.48761        1.84500
H          1.85671        0.72016        1.94002
H          4.25208        1.49077        2.00287
H          3.92281        0.51995        0.56298
H          4.22798        3.42995        0.62132
H          4.91958        2.33996       -0.38533
H          0.43530        1.63392        0.22700
H          1.84018        2.24778       -0.57176
C          2.21255        1.55663        1.33345
C          3.70731        1.47682        1.04940
N          1.47225        1.52718        0.05253
N          4.07653        2.55416        0.13267
H          1.59632        0.59780       -0.39140
