28
2sa2ma_35.log	Energy: -999020.5242044
S          2.46180        0.05658        0.29539
O          3.75678        0.34263        0.86920
O          1.28273        0.45709        1.12284
O          2.25716        1.09991       -0.96701
O          2.29892       -1.29334       -0.27536
H          3.02598        1.02420       -1.54818
H          0.95009       -2.15524       -0.44095
S         -1.11002       -1.60980       -0.28832
O         -2.35274       -2.32630       -0.25288
O          0.06401       -2.63423       -0.43283
O         -0.93114       -0.53556       -1.26467
O         -0.89680       -0.98476        1.16212
H         -0.56658        1.27609       -0.95218
H         -0.02261       -0.49106        1.21260
N         -2.84218        1.46842        1.14358
H         -2.49972        0.62119        1.59466
C         -3.89000        1.11587        0.17139
H         -4.73996        0.59274        0.62196
H         -4.25587        2.02557       -0.31169
H         -3.46080        0.46725       -0.59562
H         -3.22271        2.05924        1.87646
N         -0.51706        2.05979       -0.28491
H         -1.41360        1.99491        0.28841
C         -0.31312        3.36506       -0.93880
H         -0.29137        4.14724       -0.18013
H          0.63481        3.34954       -1.47568
H         -1.13118        3.55310       -1.63429
H          0.26702        1.80008        0.33403
