38
2sa2eda_50.log	Energy: -1117821.8146405
S         -2.28779       -1.94344       -0.04126
O         -1.56919       -2.71651        0.97234
O         -3.34643       -1.05985        0.44591
O         -1.34736       -1.25153       -0.98231
O         -2.99502       -3.01352       -1.04820
H         -3.68363       -3.47523       -0.55106
S          1.99924        1.76977       -0.27376
O          2.91568        1.02527       -1.13730
O          0.99096        2.57174       -1.00198
O          1.40072        0.96310        0.81378
O          2.89765        2.84337        0.55793
H          3.39067        3.37544       -0.08123
H         -2.56132        1.06571        1.09844
H         -0.83534        1.47142        1.30235
H         -2.30462        3.37488        2.05083
H         -1.27006        3.82406        0.68828
H         -4.12727        3.18442        0.50262
H         -3.34884        4.52798       -0.01879
H         -1.52824        0.48813       -0.89325
H         -2.30155        1.97611       -1.16986
C         -1.75792        1.73561        0.78331
C         -2.12041        3.20058        0.98300
N         -1.53953        1.50513       -0.67068
N         -3.25424        3.52889        0.11638
H         -0.62824        1.92493       -0.95229
H          2.09364       -3.03525       -1.20849
H          2.45243       -1.30750       -1.49820
H          4.41767       -2.43952       -0.46894
H          3.75453       -1.17555        0.56685
H          3.44740       -4.05951        0.98217
H          3.87306       -2.90163        2.05834
H          0.26134       -1.67069       -0.41992
H          1.06434       -2.35720        0.88138
C          2.32140       -2.07616       -0.73545
C          3.55462       -2.16847        0.15308
N          1.15949       -1.69867        0.10302
N          3.29089       -3.09497        1.25317
H          1.29240       -0.74092        0.49275
