38
2sa2eda_246.log	Energy: -1117803.0366769
S         -1.92926       -1.55763       -0.41055
O         -1.47823       -1.24123       -1.76564
O         -0.99342       -2.37141        0.37609
O         -2.40246       -0.34621        0.32773
O         -3.23213       -2.51171       -0.52010
H         -3.90649       -2.04875       -1.03601
S         -0.63638        2.56719       -0.23844
O         -0.58617        3.87903       -0.82979
O          0.41878        1.60519       -0.50351
O         -0.59233        2.72021        1.37147
O         -2.03648        1.96715       -0.50859
H         -1.17175        3.45154        1.62949
H         -2.15315        0.97890       -0.18652
H          2.38087       -2.39195       -1.89279
H          0.98120       -1.56860       -2.61602
H          3.01059       -0.58045       -3.55010
H          2.22132        0.60178       -2.50581
H          4.64434       -0.89648       -1.84940
H          4.36998        0.71354       -1.75883
H          0.67141       -1.76590       -0.27365
H          2.10464       -0.96511        0.12729
C          1.85307       -1.43722       -1.97125
C          2.77000       -0.34563       -2.50332
N          1.35858       -1.08055       -0.62468
N          3.94043       -0.19616       -1.64201
H          0.86446       -0.17890       -0.66434
H          2.40777        0.34288        3.51800
H          2.03511        1.18974        2.00337
H         -0.00838        0.40743        3.23829
H          0.08802       -0.16685        1.59419
H          0.29190       -1.76948        3.97178
H         -0.23184       -2.15457        2.45912
H          3.77384       -0.48019        1.68536
H          2.71621       -1.65044        2.18919
C          2.00505        0.21592        2.50189
C          0.55406       -0.26426        2.57784
N          2.79658       -0.74736        1.72424
N          0.48822       -1.66767        2.98375
