40
2sa2tma_14.log	Energy: -1097672.3346309
S         -0.08850        2.00507       -0.14780
O          0.89375        2.65477       -1.01873
O         -1.25695        2.79369        0.23660
O         -0.76258        0.79379       -1.03856
O          0.55989        1.28892        0.98591
H          2.02454        0.73417        0.41915
S          0.12866       -2.50036       -0.19754
O         -1.14880       -2.14491        0.43644
O          0.11830       -3.72145       -0.99089
O          0.77931       -1.32868       -0.84157
O          1.18355       -2.79343        1.03957
H         -0.16802       -0.01177       -1.01335
H          1.06555       -3.71787        1.29374
N         -3.21588        0.30791        0.12386
C         -3.84015       -0.94226       -0.38111
H         -3.99538       -0.84268       -1.45612
H         -3.16115       -1.77009       -0.17631
H         -4.79985       -1.08289        0.12141
C         -2.90227        0.22890        1.57788
H         -2.22347       -0.61084        1.72775
H         -2.41356        1.15980        1.86585
H         -3.83561        0.08953        2.12821
C         -4.03206        1.50565       -0.19934
H         -3.47998        2.38986        0.11719
H         -4.18875        1.54222       -1.27794
H         -4.99180        1.42567        0.31614
H         -2.29382        0.42316       -0.35789
N          3.05274        0.63753        0.20101
C          3.65339        1.92152        0.63813
H          3.17428        2.72529        0.07808
H          3.45757        2.05569        1.70208
H          4.72920        1.89709        0.44940
C          3.55383       -0.51847        0.98114
H          3.36809       -0.33209        2.03942
H          3.00671       -1.40972        0.67437
H          4.62538       -0.63400        0.80111
C          3.21945        0.43312       -1.26259
H          2.72104       -0.49629       -1.53491
H          2.74548        1.27139       -1.77373
H          4.28810        0.38868       -1.48709
