38
2sa2eda_212.log	Energy: -1117808.5322981
S          0.57839       -1.90333        0.59018
O         -0.62665       -2.85533        0.90585
O          1.79418       -2.64000        0.81883
O          0.47597       -1.64993       -0.97114
O          0.37779       -0.62886        1.27196
H         -0.32719       -1.08900       -1.17844
H          0.48310        1.23771        0.57312
S         -2.85711       -0.33881       -0.63683
O         -4.04980       -0.12894       -1.42881
O         -1.56548       -0.02143       -1.31568
O         -2.87486        0.83252        0.52626
O         -2.78894       -1.61849        0.09052
H         -3.78716        0.90989        0.83742
H         -1.49229       -2.40237        0.67244
H         -1.89254        3.15729        0.33540
H         -0.98105        4.46291        1.10004
H          0.03917        3.64841       -1.08601
H          1.13935        3.56366        0.31119
H         -0.39912        1.28009       -0.80198
H          1.30094        1.51574       -0.88445
H         -0.91999        3.09319        2.89702
H         -1.34484        1.75878        2.02995
C         -0.95274        3.39923        0.84586
C          0.21272        3.17314       -0.11735
N         -0.75630        2.58545        2.03899
N          0.40785        1.72380       -0.33222
H          4.87616        1.54304       -1.00497
H          3.66860        2.32600        0.02731
H          4.62265        0.32818        1.13933
H          2.90016        0.11114        0.84290
H          5.05516       -1.23850       -0.55893
H          3.58520       -1.80539       -0.07020
H          3.02753        1.84498       -2.39577
H          2.91526        0.28186       -1.90684
C          3.87840        1.42407       -0.56000
C          3.87347        0.19240        0.34720
N          2.84269        1.25327       -1.59176
N          4.07457       -1.00579       -0.45909
