34
2sa2dma_86.log	Energy: -1048336.8225709
S          2.49332       -0.42912       -0.00902
O          2.60691        1.03337        0.56198
O          3.80710       -0.99063       -0.09165
O          1.45155       -1.14498        0.72476
O          1.98167       -0.20882       -1.49870
H          1.14633        0.31679       -1.51643
S         -0.94295        2.04469       -0.19986
O         -1.19836        3.40794       -0.61323
O         -2.10626        1.20250        0.10355
O         -0.28196        1.32299       -1.58197
O          0.13967        1.83987        0.79024
H         -0.31395        1.98212       -2.28929
H          1.69658        1.43599        0.67595
N         -1.12563       -0.86748        1.74850
C         -0.91128       -0.14304        3.02280
C         -1.77403       -2.18588        1.90967
H         -1.66533       -0.26704        1.09632
H         -0.26502       -0.74277        3.66488
H         -0.44062        0.81231        2.79650
H         -1.87611        0.01717        3.50582
H         -1.15110       -2.81066        2.55118
H         -2.75591       -2.04793        2.36482
H         -1.86843       -2.62764        0.91962
H         -0.21397       -0.98915        1.27284
N         -1.47243       -1.61658       -1.21834
C         -2.88795       -1.66914       -1.55743
C         -0.70970       -2.72623       -1.77326
H         -1.09498       -0.73768       -1.55635
H         -3.35124       -2.54036       -1.07737
H         -3.38031       -0.76658       -1.18652
H         -3.07483       -1.75428       -2.64074
H         -1.03158       -3.66339       -1.30324
H         -0.83523       -2.84218       -2.86257
H          0.35142       -2.58749       -1.55487
