40
2sa2tma_02.log	Energy: -1097676.0210043
S         -0.90572        1.94391       -0.35002
O         -1.25530        1.85606        1.06298
O          0.46138        2.34921       -0.68285
O         -1.34387        0.73606       -1.12605
O         -1.87383        3.14025       -0.89812
H         -1.57419        3.38175       -1.78477
S          0.84784       -1.88174       -0.49110
O          2.20588       -2.40337       -0.62494
O         -0.23559       -2.86709       -0.41455
O          0.72120       -0.86672        0.61245
O          0.63328       -1.01956       -1.84319
H          1.98923        0.08299        0.63193
H         -0.08597       -0.36524       -1.68400
N         -2.76623       -0.89013        0.57583
C         -3.85221        0.08543        0.84556
H         -3.43451        0.91467        1.41548
H         -4.23057        0.45876       -0.10658
H         -4.64861       -0.41602        1.39980
C         -3.23674       -2.02815       -0.25594
H         -3.67634       -1.62742       -1.17013
H         -2.37370       -2.65123       -0.49422
H         -3.98617       -2.58909        0.30703
C         -2.11273       -1.34516        1.83142
H         -1.34097       -2.06764        1.57104
H         -1.65689       -0.47541        2.30341
H         -2.87502       -1.79125        2.47503
H         -2.05707       -0.37213        0.00949
N          2.93439        0.57791        0.63331
C          3.88447       -0.36909        1.26503
H          3.57620       -0.53899        2.29733
H          3.84129       -1.30958        0.71366
H          4.88910        0.06022        1.23946
C          3.28212        0.82913       -0.79018
H          3.32567       -0.13180       -1.30369
H          2.49530        1.44435       -1.22526
H          4.24883        1.33757       -0.83364
C          2.79361        1.83663        1.40202
H          2.04917        2.45895        0.90538
H          2.45559        1.59496        2.41053
H          3.76237        2.34108        1.44361
