38
2sa2eda_254.log	Energy: -1117804.8561594
S         -2.50917        0.76729        0.43599
O         -1.74430        1.47764        1.45552
O         -2.30185        1.20777       -0.94600
O         -2.39542       -0.72801        0.54501
O         -4.04856        1.08526        0.82185
H         -4.62230        0.68646        0.15335
S          0.16117       -2.27609       -0.42383
O          0.88228       -3.50562       -0.58268
O          0.79673       -1.02538       -0.82063
O         -1.22533       -2.40586       -1.18110
O         -0.28508       -2.15013        1.09938
H         -1.83852       -1.70314       -0.84500
H         -1.08134       -1.54535        1.14618
H          1.31759        3.43277       -1.68272
H          2.49017        2.59131       -0.61736
H          2.65466        1.92882       -3.07408
H          2.38887        0.58705       -1.96596
H          0.54615        1.53460       -3.95879
H          0.57290        0.09491       -3.14232
H         -0.05572        2.65629       -0.00487
H         -0.15731        1.45809       -1.12082
C          1.62365        2.46821       -1.26949
C          1.92284        1.47384       -2.39701
N          0.49369        1.93531       -0.47104
N          0.68212        1.09673       -3.05845
H          0.79445        1.27262        0.30682
H          3.33567       -0.95298        2.22150
H          4.42842        0.43256        2.28956
H          2.38429        0.78812        3.61900
H          2.56900        1.99857        2.33583
H          0.89180       -0.39219        1.98415
H          0.29313        1.05850        2.41496
H          4.31011       -0.16580        0.05439
H          2.68589       -0.28229        0.04776
C          3.46406        0.09363        1.89831
C          2.36589        0.93909        2.53034
N          3.46557        0.24014        0.44314
N          1.06912        0.60893        1.93494
