38
2sa2eda_62.log	Energy: -1117822.3658950
S          0.18012       -2.56414       -0.49463
O         -1.13403       -2.54030       -1.14119
O          0.11604       -1.70253        0.76497
O          0.83009       -3.83743       -0.27539
O          1.20991       -1.74714       -1.44195
H          0.83849       -0.86416       -1.65727
S         -0.21931        1.85300       -0.97896
O          0.69390        0.94329       -1.69587
O         -1.64357        1.54523       -1.19456
O          0.14354        2.04994        0.43785
O          0.02620        3.32573       -1.61311
H         -0.20671        3.29135       -2.55127
H          3.59080       -0.93395        0.24639
H          2.83855        0.30706       -0.76876
H          5.10004        1.05328        0.05814
H          3.80338        2.10213        0.63882
H          5.18254        0.06874        2.23390
H          4.93281        1.64672        2.58239
H          1.37792       -0.69907        1.03411
H          2.39551        0.16423        2.11205
C          3.19395        0.08400        0.23663
C          4.22580        1.09509        0.72031
N          2.02967        0.12302        1.15539
N          4.52724        0.83665        2.12965
H          1.44020        0.95988        0.97582
H         -2.69440       -0.15802        2.54676
H         -1.91637        1.17157        1.64985
H         -4.31366        1.71441        2.12467
H         -3.99371        1.58336        0.39253
H         -5.39707       -0.40306        2.02382
H         -5.82133        0.22678        0.57388
H         -1.44839       -1.05147        0.70042
H         -3.10357       -1.19430        0.35862
C         -2.69245        0.40436        1.60868
C         -4.06062        1.00944        1.32194
N         -2.34098       -0.53195        0.51895
N         -5.03417       -0.06588        1.13904
H         -2.18704        0.00828       -0.35006
