22
2sa2a_34.log	Energy: -949695.6404354
S         -1.99579       -0.40449       -0.50509
O         -3.34235       -0.79755       -0.84382
O         -0.89952       -0.74113       -1.40546
O         -1.91769        1.13944       -0.27198
O         -1.70309       -1.02485        0.92116
H         -2.78715        1.45275        0.20541
H         -0.74204       -0.91729        1.15293
S          1.99580       -0.40455        0.50507
O          3.34235       -0.79767        0.84376
O          0.89952       -0.74134        1.40535
O          1.91770        1.13943        0.27219
O          1.70314       -1.02467       -0.92128
H          2.78712        1.45282       -0.20522
H          0.74208       -0.91717       -1.15303
N         -4.19001        1.72690        0.87674
H         -4.17536        1.58132        1.88160
H         -4.79664        1.01991        0.46747
H         -4.59345        2.63998        0.69404
N          4.18995        1.72703       -0.87663
H          4.17517        1.58163       -1.88151
H          4.79650        1.01986       -0.46754
H          4.59357        2.64001       -0.69381
