28
2sa2ma_70.log	Energy: -999000.3927656
S         -2.81804        0.04928        0.18100
O         -2.07397        0.41734       -1.01188
O         -4.23946        0.24699        0.25698
O         -2.51686       -1.42971        0.57718
O         -2.10415        0.90511        1.34148
H         -1.56229       -1.70154        0.35175
H         -2.64335        0.87346        2.14472
S          0.92985       -1.14797       -0.38550
O          2.22287       -1.72920       -0.77207
O         -0.12584       -2.12350       -0.05999
O          1.08146       -0.11459        0.68049
O          0.46309       -0.36806       -1.70559
H          2.66184        0.42097        0.61379
H         -0.44866       -0.02691       -1.56508
N          3.66910        0.29418        0.31682
H          3.54751       -0.48607       -0.35797
C          4.52841       -0.09840        1.45644
H          5.53851       -0.30342        1.10327
H          4.54176        0.70533        2.19154
H          4.10133       -0.99647        1.90098
H          3.99472        1.12935       -0.16536
N          0.25157        2.78981       -0.05602
H          0.19123        1.91724        0.46064
C          1.50181        2.85299       -0.79593
H          1.71735        1.96605       -1.41653
H          1.49962        3.72650       -1.45430
H          2.32943        3.00274       -0.08846
H         -0.54098        2.80128       -0.68847
