28
2sa2ma_10.log	Energy: -999033.3241928
S          2.20365        0.15202       -0.23377
O          1.29773       -0.56094       -1.15538
O          1.95216        1.60653       -0.18890
O          2.32408       -0.48604        1.08656
O          3.69242       -0.01696       -0.84403
H          3.71397        0.40215       -1.71549
S         -2.25595       -0.26089       -0.32458
O         -2.33550        1.08898       -0.92956
O         -3.49642       -0.99000       -0.19189
O         -1.34963       -1.16391       -1.30671
O         -1.43700       -0.18029        0.94383
H         -0.44210       -0.78747       -1.36007
H         -0.53010       -1.47685        1.27471
N         -0.55175        2.45504        0.55188
H         -0.77054        1.84610        1.34524
H          0.40918        2.19157        0.24108
C         -0.67990        3.89320        0.85285
H         -0.45837        4.46087       -0.05035
H         -1.69896        4.10547        1.17551
H          0.02605        4.16788        1.63640
H         -1.22884        2.11763       -0.17685
N          0.22036       -2.19616        1.48923
H          1.11548       -1.66193        1.42989
C          0.20470       -3.31969        0.52042
H          0.94416       -4.06324        0.81767
H         -0.79222       -3.75771        0.49191
H          0.45154       -2.91637       -0.45955
H          0.08591       -2.51837        2.44486
