40
2sa2tma_05.log	Energy: -1097674.1079036
S         -0.14384        1.82430        0.75062
O         -1.04511        2.94339        0.98469
O         -0.55479        0.74590        1.85992
O         -0.34630        1.14057       -0.56475
O          1.30164        2.11577        0.93961
H          2.19821        1.15686        0.00009
S          0.17514       -2.35299        0.20544
O          1.09960       -2.58000       -0.91153
O         -1.20429       -2.01882       -0.14414
O          0.00650       -3.79699        0.95157
O          0.76628       -1.44977        1.23222
H          0.88947       -4.16442        1.08717
H         -0.06715       -0.10875        1.68683
N         -2.93645        0.38415       -0.70768
C         -3.38569        1.76581       -1.01674
H         -3.02160        2.43344       -0.23417
H         -2.95049        2.06809       -1.96947
H         -4.47640        1.78067       -1.07607
C         -3.27658       -0.56683       -1.79362
H         -2.83395       -0.20479       -2.72235
H         -2.85509       -1.53889       -1.54245
H         -4.36345       -0.61809       -1.89350
C         -3.44917       -0.07152        0.61233
H         -3.02350       -1.05256        0.81717
H         -3.11533        0.63473        1.37232
H         -4.54036       -0.11004        0.56794
H         -1.88662        0.44142       -0.63901
N          2.97520        0.75799       -0.59968
C          3.87939        1.90441       -0.84574
H          3.33276        2.66831       -1.39899
H          4.19579        2.31632        0.11280
H          4.74526        1.56667       -1.41992
C          3.63471       -0.31609        0.18408
H          4.03887        0.12075        1.09809
H          2.88292       -1.06441        0.43502
H          4.43665       -0.75323       -0.41543
C          2.38418        0.24054       -1.86118
H          1.79556       -0.65007       -1.63711
H          1.74116        1.01378       -2.28038
H          3.19588       -0.00985       -2.54953
