38
2sa2eda_268.log	Energy: -1117800.5857692
S         -3.38729        0.09250        0.46989
O         -4.76363        0.44919        0.68832
O         -2.75675        0.34595       -0.81770
O         -2.46903        0.94247        1.49408
O         -3.18208       -1.37603        0.91630
H         -2.83683        0.86301        2.38598
H         -2.33276       -1.83251        0.51549
S         -0.02021       -1.68510       -0.45765
O          1.15976       -2.41471       -0.89135
O         -1.19836       -2.51784       -0.10785
O          0.22679       -0.66463        0.59363
O         -0.45494       -0.83993       -1.77441
H          1.05738        0.67127        0.10284
H         -1.32711       -0.43058       -1.58807
H          5.87102       -0.38164        0.75197
H          5.13540       -0.82740        2.27839
H          4.17222       -2.20368        0.54685
H          2.91865       -1.12418        1.15081
H          4.42058       -0.64638       -1.32549
H          2.89445       -1.23107       -1.19122
H          4.52484        1.58646        0.71930
H          3.79478        1.16648        2.13822
C          4.93186       -0.34142        1.31857
C          3.86022       -1.15156        0.59020
N          4.63469        1.06169        1.57898
N          3.58114       -0.61295       -0.75281
H          1.78559        2.66300       -1.98812
H          0.81555        1.18182       -2.21304
H         -0.65570        3.20788       -1.95205
H         -0.91233        2.01484       -0.68303
H          0.40775        4.59183       -0.38281
H         -0.60816        3.80987        0.63318
H          2.57608        0.83747       -0.54389
H          1.84244        2.13385        0.36150
C          1.06112        1.98897       -1.52142
C         -0.19149        2.73727       -1.07687
N          1.69664        1.38999       -0.32491
N          0.16063        3.68068       -0.01321
