34
2sa2dma_70.log	Energy: -1048338.8131564
S          2.44635       -0.33417        0.31147
O          3.80785       -0.10031        0.71737
O          2.19491       -1.86463        0.32491
O          1.35279        0.39423        0.92027
O          2.29314        0.04734       -1.25996
H          3.00592       -0.37114       -1.76341
S         -1.32573       -1.76310       -0.25240
O         -1.56861       -0.62746       -1.13504
O         -1.49344       -1.45840        1.18178
O         -2.49116       -2.81850       -0.64861
O         -0.06605       -2.51141       -0.52265
H         -2.29157       -3.66347       -0.22292
H          1.23355       -2.11242        0.01976
N         -1.41520        1.33133        1.25672
C         -2.86270        1.53877        1.05892
C         -0.84313        2.06249        2.40141
H         -1.25358        0.31158        1.35856
H         -3.05202        2.59913        0.87876
H         -3.17076        0.95017        0.19450
H         -3.40845        1.20882        1.94462
H         -0.98462        3.13440        2.24766
H         -1.34317        1.75624        3.32238
H          0.21987        1.83161        2.46012
H         -0.91446        1.62764        0.34559
N         -0.26254        2.10094       -1.11736
C          0.78667        3.10985       -1.00256
C         -1.27351        2.43367       -2.11887
H          0.15399        1.20462       -1.36117
H          0.34640        4.05359       -0.66287
H          1.52246        2.78247       -0.26558
H          1.29958        3.29665       -1.95705
H         -1.81127        3.33657       -1.80903
H         -0.83631        2.62242       -3.11028
H         -1.98073        1.60589       -2.19817
