38
2sa2eda_19.log	Energy: -1117822.4177712
S          2.45543        1.44118       -0.01210
O          1.78607        2.22418        1.04029
O          3.68958        0.75210        0.36958
O          1.49401        0.56599       -0.73196
O          2.89084        2.58777       -1.08481
H          3.57555        2.21652       -1.65656
S         -2.45537       -1.44120       -0.01208
O         -1.78628       -2.22448        1.04026
O         -3.68928       -0.75173        0.36962
O         -1.49366       -0.56620       -0.73185
O         -2.89097       -2.58761       -1.08488
H         -3.57443       -2.21570       -1.65769
H          1.40507       -3.82981        0.06026
H          1.02850       -2.80048       -1.34459
H          3.54892       -3.27940       -1.02944
H          3.11842       -1.56513       -1.09289
H          4.24524       -2.93574        1.12686
H          3.98301       -1.31250        0.90683
H         -0.06347       -2.08732        0.78758
H          1.53026       -1.80227        1.34892
C          1.54274       -2.84066       -0.38313
C          3.02833       -2.47731       -0.49611
N          0.91631       -1.85192        0.52477
N          3.57158       -2.23926        0.83966
H          0.93030       -0.91813        0.06651
H         -1.40470        3.82953        0.06012
H         -1.02836        2.79988       -1.34456
H         -3.54866        3.27969       -1.02961
H         -3.11872        1.56529       -1.09292
H         -4.24549        2.93628        1.12651
H         -3.98330        1.31299        0.90685
H          0.06326        2.08667        0.78767
H         -1.53050        1.80231        1.34913
C         -1.54266        2.84036       -0.38314
C         -3.02836        2.47747       -0.49619
N         -0.91660        1.85155        0.52492
N         -3.57182        2.23971        0.83955
H         -0.93102        0.91765        0.06683
