28
2sa2ma_37.log	Energy: -999018.6280716
S          0.87779       -1.95579       -0.12559
O          1.81580       -3.02402       -0.30447
O         -0.11897       -2.36526        1.01683
O          1.38427       -0.60661        0.16034
O         -0.02199       -1.86356       -1.41987
H          0.62900        1.01283       -0.21815
H         -0.62743       -1.06998       -1.36055
S         -2.40669        0.37056        0.12815
O         -1.46422        0.31574       -1.01777
O         -3.81818        0.41356       -0.18397
O         -2.01038       -0.55491        1.20826
O         -2.03625        1.88353        0.72242
H         -0.83886       -1.67588        1.13878
H         -2.76290        2.16610        1.29343
N          3.14168        1.75344        1.17718
H          3.60123        2.35849        1.85024
C          4.05854        1.40390        0.08096
H          4.98663        0.93253        0.42262
H          3.55003        0.70375       -0.58590
H          4.31337        2.30647       -0.48103
H          2.87603        0.90352        1.67015
N          0.68636        2.03966       -0.11900
H         -0.14627        2.30798        0.41580
C          0.70027        2.69053       -1.44545
H          0.77828        3.77040       -1.32005
H          1.55871        2.32239       -2.00729
H         -0.22113        2.43342       -1.96710
H          1.57592        2.18555        0.43367
