38
2sa2eda_31.log	Energy: -1117822.8678524
S         -2.92493       -0.28014       -0.27063
O         -2.78199       -1.55019       -1.01457
O         -2.01947       -0.15823        0.87395
O         -2.92969        0.90967       -1.15122
O         -4.40113       -0.33327        0.41118
H         -5.05220       -0.46150       -0.29182
S          2.58308        0.17178       -0.27186
O          2.88259       -1.10736        0.37748
O          1.19243        0.21395       -0.81978
O          2.94127        1.37092        0.48118
O          3.44989        0.20995       -1.65521
H          4.38520        0.25837       -1.41566
H         -1.60520        3.26467        1.04182
H         -0.74141        1.79654        1.52355
H          0.46835        3.91245        2.26326
H          1.44070        2.91368        1.17142
H          0.15289        5.44365        0.50032
H          1.63307        4.87646        0.08641
H         -1.50844        1.87557       -0.83618
H         -0.34351        3.11438       -1.04994
C         -0.67835        2.69846        0.91504
C          0.54954        3.54521        1.23265
N         -0.60662        2.28337       -0.50857
N          0.66704        4.61158        0.23373
H          0.13073        1.55855       -0.64246
H          0.72223       -1.72656        1.40385
H         -0.91981       -2.38364        1.50314
H          0.98464       -3.98112        2.20715
H         -0.09664       -4.64248        0.97194
H          2.47025       -3.35010        0.33169
H          2.10952       -4.95800        0.17157
H          0.28087       -1.26313       -0.67050
H          0.41895       -2.89383       -0.95988
C          0.04424       -2.48188        1.00633
C          0.65858       -3.87182        1.16416
N         -0.13202       -2.19055       -0.44683
N          1.72196       -4.02312        0.17499
H         -1.12835       -2.17241       -0.73634
