38
2sa2eda_249.log	Energy: -1117803.8779788
S          3.32392        0.30593       -0.08216
O          4.65632        0.82684        0.07733
O          2.35669        0.42558        1.00073
O          2.60673        1.10330       -1.29370
O          3.41427       -1.14600       -0.59886
H          3.20998        1.13224       -2.04996
H          2.52881       -1.71329       -0.48480
S          0.07202       -1.91409       -0.01067
O         -1.03312       -2.84493        0.13694
O          1.39577       -2.54574       -0.26561
O         -0.16647       -0.78302       -0.93767
O          0.19558       -1.23128        1.46247
H         -0.99948        0.50997       -0.19403
H          1.01556       -0.69416        1.46849
H         -5.78235       -0.31170       -0.37727
H         -5.00996       -0.05874       -1.94054
H         -4.14685       -2.06352       -0.84149
H         -2.87082       -0.88805       -1.13218
H         -4.17028       -1.25872        1.47610
H         -2.68321       -1.77437        1.02928
H         -4.94956        2.01541       -1.01353
H         -4.59493        1.49772        0.48600
C         -4.83302       -0.03221       -0.86131
C         -3.77121       -1.07691       -0.53871
N         -4.41011        1.32874       -0.49819
N         -3.37775       -1.04086        0.87811
H         -1.46634        2.55348        1.92158
H         -0.16832        1.34178        1.90752
H          0.71816        3.49438        1.08889
H          0.72546        2.29458       -0.19867
H         -1.11488        4.55215        0.03332
H         -0.30686        4.00397       -1.27757
H         -2.23950        0.45177        0.89861
H         -2.21500        1.67202       -0.21515
C         -0.78807        1.98279        1.27992
C          0.06947        2.90654        0.42658
N         -1.60397        1.12007        0.40143
N         -0.79156        3.71412       -0.43725
