34
2sa2dma_87.log	Energy: -1048334.4602048
S         -3.71630        0.05679        0.39301
O         -5.12635        0.27483        0.58274
O         -2.74072        1.00216        0.90528
O         -3.31379       -1.33376        1.10313
O         -3.46978       -0.22218       -1.11844
H         -4.02008       -1.97645        0.94571
H         -2.48078       -0.12369       -1.38137
S          0.11044        0.20942       -0.92367
O          1.36741        0.54199       -1.58935
O         -1.06121        0.10248       -1.82219
O          0.22920       -0.97022       -0.02531
O         -0.16658        1.47582        0.03289
H          1.83079       -1.27113        0.17472
H         -1.06295        1.38377        0.42513
N          3.93789        1.05865        0.87677
C          2.89168        1.70426        1.68033
C          4.17541        1.76562       -0.38893
H          4.80072        1.04448        1.41299
H          1.94248        1.66530        1.13975
H          2.77389        1.17117        2.62785
H          3.12069        2.75732        1.89489
H          3.26880        1.70752       -0.99643
H          4.43192        2.82259       -0.23224
H          4.99309        1.28075       -0.92943
N          2.86820       -1.43720        0.25669
C          3.37570       -1.89047       -1.05438
C          3.12175       -2.37233        1.36634
H          3.30622       -0.48935        0.48944
H          2.91744       -2.84786       -1.30865
H          3.09416       -1.14288       -1.79614
H          4.46133       -2.00060       -1.00607
H          2.64324       -3.33034        1.15634
H          4.19719       -2.51767        1.48858
H          2.70036       -1.95403        2.28122
