38
2sa2eda_207.log	Energy: -1117809.0798064
S          2.20547       -1.48514       -0.09516
O          1.41962       -2.50452        0.61669
O          1.44440       -0.82842       -1.18226
O          2.88185       -0.53115        0.80246
O          3.36490       -2.26535       -0.90031
H          3.93147       -2.72332       -0.26339
S          1.00243        2.30824        0.16834
O         -0.00384        1.43791        0.78254
O          0.76802        3.72015        0.11815
O          2.37909        2.06848        0.89459
O          1.25018        1.80225       -1.30764
H          2.60161        1.09560        0.91938
H          1.35344        0.80840       -1.32647
H         -2.04742       -2.20076        2.55371
H         -0.79343       -1.07407        3.13723
H         -2.99219       -0.18432        3.65159
H         -2.21393        0.85260        2.45487
H         -4.66663       -0.01058        2.14516
H         -3.71520        0.01838        0.81425
H         -0.21396       -1.81422        0.97601
H         -1.64486       -1.35595        0.27338
C         -1.61015       -1.20902        2.42383
C         -2.67338       -0.13589        2.60597
N         -1.00636       -1.15237        1.06763
N         -3.81902       -0.39257        1.74390
H         -0.60901       -0.21211        0.89218
H         -3.48421       -0.28181       -3.35123
H         -3.33502        1.33543       -2.65606
H         -1.13918        0.31028       -3.03572
H         -1.40887        0.67845       -1.32953
H         -1.85525       -2.00389       -2.44707
H         -0.48460       -1.52710       -1.70611
H         -4.99058        0.19218       -1.44504
H         -4.01753       -1.08056       -1.13677
C         -3.19787        0.27187       -2.44066
C         -1.72543        0.02704       -2.15086
N         -4.02512       -0.07554       -1.28521
N         -1.49148       -1.36681       -1.74269
