34
2sa2dma_19.log	Energy: -1048357.3112633
S         -1.62690        1.57593       -0.34675
O         -3.04869        1.80503       -0.48933
O         -1.22639        0.83413        0.89540
O         -1.27374        0.53503       -1.54395
O         -0.74205        2.75110       -0.53000
H          0.72775        2.43596        0.16491
S          1.68228       -1.61995       -0.55639
O          2.94194       -2.14922       -1.04261
O          0.53531       -2.54320       -0.60921
O          1.92434       -1.31163        1.05588
O          1.32378       -0.25721       -1.03365
H          2.57780       -1.95307        1.36554
H         -0.33153        0.25764       -1.47678
N         -1.82764       -1.76165        0.55480
C         -3.06027       -1.87351       -0.25624
C         -1.86235       -2.49049        1.83701
H         -1.00140       -2.08707        0.00985
H         -3.89330       -1.44132        0.29959
H         -2.91200       -1.31127       -1.17773
H         -3.25380       -2.92505       -0.47460
H         -2.66823       -2.09323        2.45600
H         -2.02519       -3.55293        1.64924
H         -0.90503       -2.34936        2.33896
H         -1.63386       -0.74103        0.74289
N          1.63156        2.01384        0.50523
C          1.60787        1.91364        1.97876
C          2.77701        2.75770       -0.05448
H          1.61372        1.06390        0.08523
H          1.59139        2.91844        2.40411
H          0.70162        1.37625        2.25563
H          2.49269        1.37375        2.31804
H          2.76903        3.77705        0.33422
H          3.70619        2.25844        0.22431
H          2.68105        2.77567       -1.14000
