34
2sa2dma_82.log	Energy: -1048334.5482632
S         -0.32475        2.29521        0.01240
O          0.23003        3.00303        1.15814
O          0.41009        1.10999       -0.43541
O         -1.79018        2.01895        0.15803
O         -0.21111        3.29632       -1.26596
H         -0.56894        4.15627       -1.00617
S         -2.06221       -1.40941       -0.07005
O         -3.00821       -2.49098       -0.18607
O         -1.34849       -1.19575        1.17941
O         -0.85766       -1.70641       -1.13101
O         -2.70160       -0.11611       -0.59053
H         -1.25683       -2.00031       -1.96218
H         -2.25044        0.81100       -0.25749
N          1.40712       -0.79530        1.45397
C          2.00989        0.28018        2.26821
C          1.55402       -2.14779        2.02370
H          0.40223       -0.61421        1.31105
H          3.08504        0.10651        2.34498
H          1.81029        1.23839        1.78856
H          1.56352        0.27515        3.26419
H          2.61561       -2.37854        2.13149
H          1.06198       -2.19492        2.99618
H          1.08235       -2.86166        1.34833
H          1.82175       -0.79336        0.45932
N          2.30325       -0.83671       -1.14595
C          2.56493       -2.13835       -1.74949
C          3.35045        0.14872       -1.40574
H          1.41703       -0.46311       -1.48137
H          3.46281       -2.57717       -1.30198
H          1.72105       -2.80506       -1.55467
H          2.72409       -2.07789       -2.83642
H          4.27987       -0.16574       -0.91910
H          3.55184        0.27754       -2.47892
H          3.03696        1.10956       -0.99221
