38
2sa2eda_166.log	Energy: -1117815.3150103
S          0.30146        1.08171       -0.35119
O          1.11487        2.06073       -1.09994
O         -0.87534        0.58115       -1.14611
O          1.19762       -0.13969       -0.05383
O         -0.18760        1.63304        0.94983
H          2.61755        0.15869       -0.64484
H         -1.64521        1.08339        1.28674
S         -1.21373       -2.60553       -0.00062
O         -2.03348       -1.76149        0.86759
O         -1.52818       -4.00178       -0.12585
O         -1.20227       -1.96745       -1.44273
O          0.28947       -2.49238        0.46876
H         -1.07374       -0.96414       -1.38244
H          0.62757       -1.54709        0.34047
H         -2.39040        3.07493       -0.14106
H         -4.11451        3.46018       -0.12157
H         -3.23379        2.69060        2.12326
H         -4.57099        1.68367        1.49604
H         -2.78030        0.25347        2.23452
H         -2.86993        0.17374        0.60400
H         -4.27505        1.95913       -1.79892
H         -2.77129        1.33323       -1.50719
C         -3.39350        2.63997       -0.05424
C         -3.53989        2.00450        1.32989
N         -3.64359        1.63503       -1.07995
N         -2.66973        0.80770        1.38828
H          4.80505        2.07049       -0.01350
H          3.24553        1.83766        0.81390
H          5.11080        0.64302        2.02315
H          3.87738       -0.46928        1.42460
H          6.54653       -0.09866        0.29490
H          5.73045       -1.48442        0.59215
H          3.06690        1.43335       -1.55617
H          4.18509        0.14214       -1.38940
C          4.05498        1.33256        0.28394
C          4.67371        0.21360        1.11321
N          3.47747        0.72663       -0.93861
N          5.62672       -0.52560        0.28338
