28
2sa2ma_73.log	Energy: -999000.9724652
S         -2.77639        0.06948       -0.19057
O         -4.15842        0.27411       -0.52691
O         -1.71915        0.42096       -1.12292
O         -2.41849        0.93861        1.11722
O         -2.61174       -1.40281        0.29591
H         -3.15087        0.89047        1.74860
H         -1.63298       -1.67593        0.36162
S          1.01950       -1.27815        0.11712
O          2.28185       -2.02428       -0.03182
O         -0.15805       -2.11850        0.39234
O          1.15661       -0.13676        1.05476
O          0.81061       -0.63368       -1.34488
H          2.90315        0.42470        0.95090
H         -0.07359       -0.20407       -1.37448
N          0.16174        2.75787        0.68812
H          0.14307        1.80928        1.05120
C          1.24375        2.89311       -0.27349
H          1.25593        2.13082       -1.06963
H          1.19748        3.87715       -0.74938
H          2.20461        2.84683        0.25605
H         -0.73275        2.90401        0.23398
N          3.80681        0.09010        0.55405
H          4.55386        0.18484        1.23797
C          4.10890        0.75292       -0.73952
H          4.99749        0.29775       -1.17526
H          3.25197        0.59868       -1.39553
H          4.26601        1.81807       -0.57608
H          3.56555       -0.91702        0.38846
