38
2sa2eda_159.log	Energy: -1117819.4431127
S          0.73813       -1.62880       -1.07717
O          1.28270       -2.89135       -1.51930
O         -0.59708       -1.26687       -1.62294
O          0.74921       -1.44713        0.41283
O          1.75035       -0.49518       -1.63655
H          1.22643        0.00858        1.02597
H          1.30127        0.38379       -1.58109
S         -0.81235        2.14025       -0.50525
O         -1.38118        3.41868       -0.87037
O          0.54453        1.84823       -1.03179
O         -0.91660        1.80189        0.94141
O         -1.78497        1.02797       -1.23342
H         -2.47580        0.13534        1.57348
H         -1.26804        0.19180       -1.43907
H         -2.30931       -2.01517       -0.24188
H         -3.25674       -3.11564        0.76383
H         -4.58944       -1.08495       -0.05293
H         -4.53214       -1.22332        1.72434
H         -2.84226        0.55311        0.01968
H         -3.87696        1.00011        1.25844
H         -1.93524       -2.51363        2.55898
H         -0.89179       -1.88585        1.43548
C         -2.81187       -2.11573        0.72547
C         -3.93535       -1.07577        0.82083
N         -1.84734       -1.86011        1.79148
N         -3.27599        0.25014        0.92475
H          3.27731        1.51047        2.58073
H          2.50729       -0.01797        3.08637
H          4.75211       -0.35815        1.92460
H          3.40668       -1.19139        1.14155
H          5.04557        0.76578       -0.02267
H          3.71528        0.04979       -0.69269
H          0.91319        1.43894        1.81203
H          1.97384        1.40857        0.55208
C          2.84083        0.57235        2.22982
C          3.83094       -0.20404        1.35462
N          1.66893        0.89220        1.38852
N          4.07203        0.53861        0.12213
