22
2sa2a_35.log	Energy: -949694.4798127
S         -1.98264       -0.46331       -0.05662
O         -0.86975       -1.11499        0.64742
O         -3.11769       -1.32258       -0.40103
O         -2.45448        0.76324        0.68952
O         -1.43125        0.05706       -1.45513
H         -0.55563        0.49895       -1.32298
S          2.01119        0.62500       -0.06726
O          3.12981        1.44899        0.33168
O          0.94474        1.20311       -0.87465
O          2.52270       -0.63493       -0.84752
O          1.39908        0.03747        1.26209
H          3.42539       -0.93639       -0.44393
H          0.51899       -0.40744        1.07653
N         -4.93939        0.59291        0.41793
H         -3.83590        0.82398        0.60337
H         -5.37229        1.25412       -0.22052
H         -4.85735       -0.33319       -0.02295
H         -5.47290        0.53218        1.28029
N          4.83540       -1.16686        0.27533
H          4.80632       -1.83082        1.04241
H          5.03081       -0.24490        0.65969
H          5.59845       -1.42481       -0.34174
