38
2sa2eda_76.log	Energy: -1117823.6833197
S          2.86402       -0.57734       -0.21713
O          2.02092       -0.20814        0.93091
O          2.19504       -1.53674       -1.13198
O          3.50647        0.53861       -0.91387
O          4.06185       -1.42410        0.49157
H          4.76269       -1.54685       -0.16271
S         -3.13266        0.29041       -0.18960
O         -2.05472        0.26105       -1.20568
O         -3.56879       -1.03204        0.26778
O         -2.84237        1.24178        0.90475
O         -4.36898        0.92774       -1.03094
H         -5.15576        0.90073       -0.46983
H         -1.95223       -3.00558       -0.12075
H         -0.45812       -3.93362       -0.43642
H         -0.57817       -3.36692        1.92669
H          0.78632       -2.52611        1.17303
H         -1.78279       -1.25670        1.80378
H         -0.29774       -0.93614        2.44419
H         -0.69680       -2.30373       -2.10766
H         -1.01094       -1.07516       -1.05471
C         -0.86030       -2.96297       -0.13786
C         -0.30590       -2.56602        1.22297
N         -0.47360       -1.96513       -1.17379
N         -0.78434       -1.24619        1.61060
H          0.55759       -1.76132       -1.14007
H         -0.15823        3.68811        0.95417
H          0.66457        2.71504        2.19464
H          2.25513        4.07576        0.70291
H          2.58831        2.34174        0.75270
H          1.69713        3.83016       -1.52364
H          2.40069        2.33187       -1.41936
H         -1.09373        1.52490        0.81289
H         -0.04665        1.74631       -0.47604
C          0.53334        2.85814        1.12050
C          1.87161        3.09169        0.41013
N         -0.09704        1.64809        0.54766
N          1.69178        2.94711       -1.03097
H          0.43135        0.79076        0.78470
