34
2sa2dma_47.log	Energy: -1048348.8807677
S         -2.75152       -0.87581       -0.33731
O         -3.79771       -1.65898       -0.94887
O         -1.47408       -0.77712       -1.12322
O         -3.14108        0.49749        0.09676
O         -2.35499       -1.66888        1.01020
H         -1.87161        1.42304        0.02670
H         -1.62335       -1.19063        1.45231
S          1.11655       -0.44086        0.84765
O          2.34626       -0.88813        1.49343
O         -0.04734       -0.16566        1.70087
O          1.39582        0.77348       -0.03522
O          0.73691       -1.59691       -0.16702
H          2.77636        0.48189       -0.69717
H         -0.16206       -1.37493       -0.59701
N          3.75470        0.20496       -1.05502
C          3.75229       -1.24639       -1.38406
C          4.74110        0.57465       -0.00862
H          3.92707        0.74461       -1.90213
H          3.55645       -1.79425       -0.46266
H          2.94783       -1.44460       -2.09146
H          4.71958       -1.52206       -1.80726
H          4.45515        0.05128        0.90419
H          5.74364        0.28721       -0.32987
H          4.68927        1.65081        0.15695
N         -1.09124        2.13776       -0.10184
C         -1.03310        2.98895        1.10164
C         -1.35947        2.85129       -1.36370
H         -0.20408        1.60959       -0.17940
H         -2.00455        3.46291        1.25019
H         -0.79642        2.34833        1.95135
H         -0.25949        3.74991        0.97988
H         -2.32414        3.35511       -1.28898
H         -0.57041        3.58195       -1.55411
H         -1.39927        2.11413       -2.16589
