40
2sa2tma_27.log	Energy: -1097649.4782511
S          3.62174        0.33740       -0.05416
O          4.54980        1.36052        0.34784
O          2.44283        0.67300       -0.83445
O          4.39031       -0.73684       -0.97914
O          3.23414       -0.48459        1.20975
H          5.25433       -0.92854       -0.58688
H          2.44550       -1.12111        1.02641
S          0.02512       -1.47903        0.21948
O         -0.43170       -0.32938        1.00360
O          1.31522       -2.04785        0.67485
O         -1.02451       -2.50751        0.03486
O          0.26416       -0.96421       -1.29161
H         -2.41230       -1.71641        0.00657
H          1.03387       -0.35477       -1.28741
N         -1.86775        2.52902        0.00884
C         -1.67418        2.71834        1.43807
H         -2.63626        2.63901        1.95692
H         -1.00297        1.94418        1.81793
H         -1.24172        3.70850        1.67442
C         -0.59259        2.57877       -0.69441
H          0.08451        1.83054       -0.27923
H         -0.74486        2.35707       -1.75595
H         -0.11145        3.57090       -0.61561
C         -2.80472        3.49802       -0.52964
H         -2.96198        3.31055       -1.59721
H         -3.76991        3.40857       -0.01950
H         -2.45206        4.54061       -0.41567
N         -3.33839       -1.20934       -0.10898
C         -3.15540       -0.24943       -1.23034
H         -2.49298        0.55254       -0.88810
H         -2.71825       -0.78174       -2.07557
H         -4.12979        0.16692       -1.49925
C         -4.34131       -2.25170       -0.42037
H         -4.05190       -2.75139       -1.34530
H         -4.36197       -2.97882        0.39200
H         -5.32358       -1.78805       -0.53619
C         -3.62657       -0.50435        1.16454
H         -3.70746       -1.24250        1.96319
H         -2.79561        0.17072        1.36650
H         -4.56329        0.04864        1.06114
