38
2sa2eda_01.log	Energy: -1117827.5062141
S         -0.78423        2.53569       -0.18689
O         -1.59126        2.31368        1.03179
O          0.58532        2.99805        0.10551
O         -0.87719        1.42258       -1.14386
O         -1.49207        3.75399       -0.98962
H         -1.36533        4.56456       -0.47791
S          0.63680       -1.75925       -0.68793
O         -0.59760       -2.39490       -1.13788
O          0.42622       -1.07313        0.64859
O          1.86197       -2.54724       -0.71520
O          0.96414       -0.52352       -1.68629
H          0.25570        0.15820       -1.61492
H         -3.95686       -0.05172       -0.07587
H         -2.54987       -0.57769       -1.02660
H         -4.23468       -2.43847       -0.75447
H         -2.65981       -2.82218       -0.05379
H         -5.08249       -2.10645        1.43686
H         -4.03692       -3.33532        1.70089
H         -2.10671        0.64235        1.14092
H         -2.64020       -0.80190        1.87873
C         -3.10372       -0.73568       -0.10242
C         -3.54167       -2.18601        0.05726
N         -2.22019       -0.38628        1.03938
N         -4.10401       -2.37116        1.39877
H         -1.25449       -0.76845        0.91019
H          4.18568        1.46055        1.33156
H          3.03921        0.76325        2.50490
H          4.91361       -0.85057        1.82549
H          3.28886       -1.46811        1.50627
H          5.28338       -0.94870       -0.42595
H          3.76355       -1.58016       -0.64206
H          1.90203        1.83047        0.50820
H          2.70785        0.67077       -0.40940
C          3.43818        0.67983        1.49179
C          4.02133       -0.71051        1.20707
N          2.33871        0.89317        0.52646
N          4.30198       -0.82798       -0.21922
H          1.56994        0.20027        0.68995
