38
2sa2eda_113.log	Energy: -1117819.1463133
S         -2.34827       -0.80763       -0.29263
O         -2.28110       -2.19129        0.18484
O         -2.64048        0.18874        0.75929
O         -1.20252       -0.40189       -1.14153
O         -3.58428       -0.73613       -1.34368
H         -4.37292       -1.08644       -0.90710
S          2.82188        0.82511       -0.21472
O          3.23199       -0.35636       -0.99886
O          2.27692        1.92933       -1.00904
O          1.96464        0.47095        0.94409
O          4.17230        1.37006        0.50819
H          4.82373        1.56089       -0.18036
H         -0.27375        3.54171        1.60105
H          0.48711        3.67523       -0.00003
H         -1.62793        4.95766        0.04154
H         -1.76565        3.62004       -1.08338
H         -3.11974        2.44517        0.49893
H         -2.93253        3.64487        1.62067
H          0.51377        1.39640        0.80279
H         -1.17958        1.37061        0.86468
C         -0.38465        3.29955        0.54055
C         -1.69359        3.86617       -0.01756
N         -0.36109        1.82250        0.42407
N         -2.91482        3.43092        0.63065
H         -0.39922        1.51581       -0.55389
H         -0.39041       -3.37754       -0.99589
H          1.29106       -3.80129       -1.39966
H          0.27406       -5.07633        0.58290
H          1.79880       -4.25555        0.95315
H         -0.84467       -3.12106        1.58916
H          0.33236       -3.59345        2.66117
H          0.30631       -1.30814       -0.87499
H          0.95803       -1.74336        0.57478
C          0.64215       -3.35941       -0.64274
C          0.74603       -4.09118        0.69877
N          1.01035       -1.93312       -0.44152
N          0.15617       -3.24623        1.72769
H          1.94966       -1.64147       -0.76464
