22
2sa2a_26.log	Energy: -949699.4218137
S         -2.13590       -0.42941       -0.01647
O         -1.77805       -0.05724       -1.39121
O         -0.97719       -1.00326        0.73782
O         -2.82833        0.58744        0.77192
O         -3.16738       -1.65522       -0.23209
H         -3.58332       -1.85346        0.61830
S          2.22239       -0.29549        0.02642
O          2.23745        0.55662       -1.15012
O          2.02953        0.33163        1.32150
O          1.26584       -1.49982       -0.14917
O          3.63638       -1.03780       -0.00967
H          0.28496       -1.29797        0.19451
H          3.71697       -1.61374        0.76474
N         -0.11372        2.13490       -1.39609
H         -0.81322        1.38793       -1.58964
H          0.82189        1.73112       -1.54060
H         -0.26375        2.94505       -1.98923
H         -0.20783        2.37203       -0.34185
N         -0.37556        2.34182        1.32397
H         -0.30704        3.19815        1.86374
H          0.33396        1.69521        1.66933
H         -1.28741        1.91822        1.50439
