38
2sa2eda_260.log	Energy: -1117804.0905163
S          3.22320       -1.28696       -0.06743
O          4.26638       -2.18414       -0.45997
O          2.58090       -0.66622       -1.38487
O          2.14096       -1.77173        0.78447
O          3.89399       -0.02796        0.62927
H          3.21527        0.67518        0.74956
S          0.63669        2.42631        0.18033
O         -0.63238        1.89809        0.71638
O          1.16872        3.62830        0.78802
O          1.63222        1.31779        0.04617
O          0.24404        2.80338       -1.35671
H          2.06258        0.13826       -1.12476
H          0.78588        3.55906       -1.62200
H         -1.69363       -0.69382       -0.85059
H         -0.05148       -1.32644       -1.14717
H         -1.85624       -3.12948       -1.24551
H         -0.60581       -3.44931       -0.03458
H         -3.29716       -2.40654        0.47600
H         -2.53875       -3.69713        1.19502
H         -0.55471        0.17897        0.91331
H         -1.15951       -1.29811        1.52554
C         -0.91174       -1.36177       -0.47728
C         -1.43769       -2.78473       -0.29104
N         -0.50020       -0.85830        0.86188
N         -2.39792       -2.77105        0.81055
H          0.46856       -1.15056        1.06401
H         -5.85796        0.46576       -0.43383
H         -5.62575       -0.48610        1.03872
H         -4.28890        1.56500        1.12130
H         -3.24993        0.13760        1.11264
H         -3.78851        1.79818       -1.24614
H         -2.37114        1.65078       -0.44617
H         -5.46943       -1.84930       -0.97666
H         -4.15674       -0.98568       -1.44330
C         -5.12937       -0.14475        0.12455
C         -3.93804        0.72962        0.49789
N         -4.67821       -1.31470       -0.63409
N         -3.22117        1.15316       -0.70384
