28
2sa2ma_56.log	Energy: -999012.8490984
S          3.43091        0.14061        0.02127
O          4.85599        0.10808        0.21717
O          2.54943        0.68269        1.03928
O          3.11140        1.03661       -1.27976
O          2.97024       -1.28720       -0.39904
H          3.77703        0.84808       -1.95668
H          1.95715       -1.41215       -0.31142
S         -0.54312       -0.61907        0.14788
O          0.47570       -1.66005       -0.10387
O         -1.88009       -1.12821        0.45434
O         -0.11565        0.13461        1.50491
O         -0.54636        0.42124       -0.91540
H          0.82736        0.40083        1.43072
H         -1.94524        1.26637       -0.88193
N         -4.40638       -0.64145       -0.88042
H         -4.80687       -0.97209       -1.75244
C         -5.36630       -0.78824        0.22107
H         -5.76834       -1.80322        0.31574
H         -4.86279       -0.53924        1.15811
H         -6.20051       -0.09501        0.08179
H         -3.57614       -1.20324       -0.68116
N         -2.90835        1.65991       -0.68835
H         -3.09766        2.42739       -1.32813
C         -2.98325        2.08376        0.72983
H         -3.98407        2.45657        0.95032
H         -2.75938        1.21322        1.34680
H         -2.24023        2.85703        0.92362
H         -3.58963        0.84638       -0.86685
