38
2sa2eda_186.log	Energy: -1117811.7720354
S         -1.09414        1.21318        0.70241
O         -1.02405        1.47351       -0.75172
O         -0.03242        1.85622        1.48360
O         -2.46321        1.46712        1.23401
O         -0.96496       -0.37316        0.88956
H         -3.43197        1.05330        0.10437
H         -0.19255       -0.74920        0.37508
S          2.25690       -1.82695       -0.05946
O          3.34569       -1.73260       -1.02680
O          0.93013       -1.42698       -0.57108
O          2.04109       -3.40635        0.27229
O          2.56778       -1.18726        1.24509
H          2.90379       -3.78262        0.49212
H          2.53307        0.48198        1.22781
H         -3.98011       -0.78516       -2.21224
H         -2.40662       -0.43617       -1.43959
H         -3.39400       -2.60303       -0.60041
H         -3.18738       -1.40705        0.67683
H         -5.72268       -2.23098       -0.52568
H         -5.36736       -1.93097        1.04120
H         -4.00186        1.45768       -1.43620
H         -4.97644        0.52664       -0.42072
C         -3.47517       -0.56720       -1.26655
C         -3.76057       -1.64114       -0.22411
N         -4.01906        0.71659       -0.73970
N         -5.19278       -1.62557        0.09158
H          3.99786        2.58365       -0.20601
H          4.11594        0.79991       -0.32884
H          3.01447        1.68062       -2.33964
H          1.84051        0.77524       -1.40201
H          1.77780        3.57759       -1.95122
H          0.59617        2.60925       -1.29977
H          3.17418        1.90414        1.82628
H          1.73857        1.94800        0.98596
C          3.43372        1.64945       -0.24761
C          2.44037        1.69197       -1.40617
N          2.67886        1.50499        1.03289
N          1.58069        2.85900       -1.26867
