38
2sa2eda_79.log	Energy: -1117824.6288886
S         -0.13993       -1.71456       -0.53109
O         -0.09800       -1.50727        0.94445
O         -0.86816       -0.60804       -1.19642
O          1.18194       -1.99892       -1.09956
O         -1.02575       -3.01642       -0.77007
H         -1.94208       -2.74762       -0.47563
S         -0.20075        2.62506       -0.26210
O          0.56003        1.87309        0.78914
O          0.21809        3.99224       -0.47062
O          0.15251        1.85667       -1.63836
O         -1.66065        2.41564       -0.03887
H         -0.24199        0.95246       -1.59693
H         -1.83501        1.14588        0.89775
H          3.32829        0.30394        1.89863
H          2.20201       -1.03625        1.56644
H          4.58561       -1.85327        1.64878
H          3.84683       -2.09062        0.06075
H          5.81528       -0.03010        0.73764
H          5.79696       -1.06021       -0.53366
H          1.79023        0.96847        0.22904
H          3.32433        0.70663       -0.50468
C          3.03205       -0.45162        1.16596
C          4.20816       -1.33046        0.76040
N          2.53267        0.26137       -0.03344
N          5.20972       -0.50870        0.07954
H          2.11520       -0.43396       -0.67617
H         -3.22786        0.01034       -0.65633
H         -4.85961       -0.31984       -0.05535
H         -4.02391        0.69653        1.79855
H         -3.53263       -0.95642        2.20139
H         -1.76356        0.67175        2.49578
H         -1.28318       -0.41292        1.33116
H         -4.13307       -2.57041        0.42153
H         -3.85726       -2.20162       -1.13691
C         -3.79889       -0.56851        0.07411
C         -3.39516       -0.13998        1.48588
N         -3.55302       -1.99839       -0.18739
N         -1.99092        0.32812        1.56468
