38
2sa2eda_162.log	Energy: -1117816.2661955
S         -0.92462        0.35433       -0.76983
O         -2.13236        0.65023       -1.57795
O          0.35125        0.50129       -1.49303
O         -0.94070        1.11876        0.50565
O         -1.08927       -1.18143       -0.39456
H         -3.40142        0.90589        1.10322
H         -0.22326       -1.50693        0.05419
S          2.39110       -1.83361        0.04714
O          1.06996       -1.76781        0.76213
O          3.11358       -3.07288        0.19999
O          2.03129       -1.73724       -1.51979
O          3.15619       -0.59394        0.37004
H          1.50795       -0.92217       -1.67535
H          2.20168        0.47042        1.04033
H         -3.66437       -1.42862       -0.55795
H         -5.07160       -2.01550        0.33583
H         -5.45440        0.21784       -0.87302
H         -5.75868        0.28758        0.88445
H         -3.26514        1.11333       -0.54439
H         -4.31945        2.10885        0.36462
H         -3.86122       -1.73198        2.27304
H         -2.53595       -1.46641        1.31962
C         -4.30662       -1.23331        0.30540
C         -5.00034        0.12186        0.11484
N         -3.48949       -1.17748        1.51353
N         -3.95388        1.16544        0.26705
H          2.00924        3.32892        1.89194
H          3.45889        2.28411        1.99104
H          3.56847        3.66189       -0.00864
H          3.40561        1.96130       -0.46019
H          1.89152        3.82500       -1.51454
H          1.21610        2.37993       -1.16190
H          1.51418        1.00027        2.47393
H          0.75978        1.39869        1.06445
C          2.54444        2.49575        1.43096
C          2.87279        2.81734       -0.02244
N          1.69077        1.28113        1.51168
N          1.66936        3.19528       -0.75369
