38
2sa2eda_92.log	Energy: -1117822.5656689
S          1.10183       -1.95799        0.56489
O          2.46375       -1.58547        0.93354
O          0.06816       -1.59309        1.56206
O          0.70326       -1.55341       -0.80487
O          1.04586       -3.58185        0.46389
H          1.42210       -3.94591        1.27720
S         -1.32751        1.75994        1.04655
O         -2.43349        0.79834        1.29461
O         -0.92556        1.69055       -0.39858
O         -1.50967        3.10050        1.55163
O         -0.05043        1.16520        1.84755
H         -0.08248        0.18071        1.85722
H          2.56951        2.55571        0.06754
H          2.36056        0.99145        0.87655
H          4.74304        1.30748        0.15502
H          3.98030       -0.06932       -0.64113
H          4.55504        2.52765       -1.87205
H          4.85715        1.02857       -2.44870
H          0.64196        1.49943       -0.83815
H          1.92449        1.42844       -1.98882
C          2.61734        1.47173       -0.06642
C          3.97835        1.02287       -0.57804
N          1.58981        1.10817       -1.07546
N          4.19550        1.58001       -1.91616
H          1.44398        0.08218       -1.11793
H         -3.15267       -2.35471       -1.79899
H         -4.19225       -1.83226       -0.44295
H         -4.44369       -0.41298       -2.51629
H         -3.97177        0.50684       -1.08267
H         -2.64850        0.59987       -3.42066
H         -1.92255        0.88859       -1.97145
H         -1.95022       -2.20060        0.35794
H         -1.30540       -1.23563       -0.79774
C         -3.35387       -1.55261       -1.08542
C         -3.62550       -0.23704       -1.81197
N         -2.15306       -1.39264       -0.22972
N         -2.42554        0.19393       -2.52163
H         -2.25764       -0.55884        0.41620
