28
2sa2ma_09.log	Energy: -999034.1118928
S         -2.04036       -0.66866       -0.21413
O         -1.45737       -2.02364       -0.13801
O         -2.24942        0.00942        1.05897
O         -1.32610        0.18252       -1.21314
O         -3.53382       -0.86848       -0.80543
H         -3.47573       -1.38625       -1.62030
S          2.09196        0.66566       -0.30757
O          3.45341        0.18247       -0.20548
O          1.28999        0.45571        0.96440
O          1.86864        2.02707       -0.81089
O          1.39588       -0.35838       -1.35799
H          0.15766        2.89491       -0.10044
H          0.43668       -0.15218       -1.43999
N          0.89580       -2.16862        1.27402
H          0.76455       -2.48615        2.23157
H         -0.01283       -2.24964        0.76724
C          1.97991       -2.90749        0.57960
H          2.04701       -2.51666       -0.43487
H          2.92317       -2.72581        1.09324
H          1.74643       -3.97205        0.56694
H          1.10408       -1.12877        1.27882
N         -0.59715        2.38071        0.36807
H         -1.04134        1.78034       -0.35052
C         -1.57526        3.20266        1.10609
H         -2.31799        2.53134        1.53584
H         -1.06176        3.75453        1.89301
H         -2.05398        3.89895        0.41785
H         -0.08969        1.69628        0.96069
