38
2sa2eda_216.log	Energy: -1117808.1174893
S         -0.70711        2.02820        0.13478
O         -0.46942        1.00179       -0.90290
O         -2.11699        2.15748        0.54217
O          0.23175        1.90805        1.26322
O         -0.34307        3.40657       -0.63033
H         -0.73935        4.13954       -0.13885
S         -3.10423       -1.10644       -0.19026
O         -4.06175       -2.13161       -0.47964
O         -2.09226       -1.33393        0.84464
O         -2.35673       -0.75092       -1.53803
O         -3.89278        0.20774        0.17287
H         -1.64723       -0.06680       -1.38164
H         -3.26533        0.95379        0.38393
H          2.51600       -1.39421        1.68183
H          1.16958       -2.30087        2.42603
H          2.53009       -3.69560        0.77826
H          0.81902       -3.57543        0.34580
H          2.99871       -2.03099       -0.88225
H          1.84076       -2.97396       -1.62776
H          0.71948        0.03460        1.36357
H          0.88949       -0.80436       -0.06494
C          1.57276       -1.91029        1.49048
C          1.74928       -3.00401        0.43349
N          0.64775       -0.89826        0.93612
N          2.02959       -2.36240       -0.84414
H         -0.34986       -1.17632        0.96385
H          5.49238        1.00137       -0.67671
H          4.72067        0.23578       -2.06981
H          3.33418        2.03679       -1.15473
H          2.50540        0.48439       -1.05218
H          3.91048        1.73789        1.20187
H          2.29729        1.64333        1.01324
H          5.60607       -1.40995       -0.54382
H          4.62611       -0.85847        0.64507
C          4.65190        0.35672       -0.98415
C          3.34350        1.06115       -0.64753
N          4.71026       -0.96977       -0.36172
N          3.17137        1.16309        0.80506
