38
2sa2eda_172.log	Energy: -1117813.8259806
S          0.92261        1.41035       -1.04600
O          0.13010        2.56260       -1.44016
O          0.58103        0.88000        0.31077
O          0.62105        0.18233       -2.04743
O          2.39627        1.53177       -1.18247
H          2.75161       -0.03300       -0.60575
S         -1.29049       -2.33082       -0.11389
O         -1.75896       -3.65919       -0.46925
O         -1.70695       -1.82839        1.20593
O          0.37640       -2.54628        0.02454
O         -1.40379       -1.29527       -1.16022
H          0.50292       -3.50300       -0.02396
H         -0.18406       -0.31925       -1.75962
H         -2.38799        2.30579       -0.46822
H         -2.73003        0.61757       -0.88402
H         -4.85700        1.90895       -0.46999
H         -4.65856        0.57701        0.67238
H         -4.17763        3.40415        1.27096
H         -5.12275        2.33653        2.07284
H         -0.96312        1.05074        0.84255
H         -2.27894        1.45816        1.87294
C         -2.81512        1.36961       -0.09903
C         -4.25231        1.54849        0.37191
N         -1.98539        0.92433        1.04911
N         -4.26583        2.42979        1.54114
H         -2.08198       -0.09614        1.22469
H          5.19332       -0.31930        0.69602
H          4.89165       -0.16042        2.42433
H          3.31181       -1.77717        1.74885
H          2.35371       -0.27189        1.80205
H          3.44448       -1.56024       -0.61273
H          1.84638       -1.38484       -0.17236
H          5.01622        2.02026        1.43291
H          3.68892        1.73062        0.50206
C          4.45997        0.04758        1.44003
C          3.18776       -0.78177        1.31743
N          4.17043        1.46822        1.36023
N          2.78992       -0.96249       -0.11099
