22
2sa2a_17.log	Energy: -949705.7563524
S          1.80077       -0.64861       -0.02125
O          2.30537        0.18717       -1.11156
O          1.12795        0.14575        1.04682
O          0.99071       -1.81405       -0.41768
O          3.14511       -1.24254        0.63779
H          2.90612       -1.97899        1.21797
S         -2.14677       -0.35803       -0.03547
O         -3.56449       -0.35960        0.16565
O         -1.57896        0.33811       -1.19171
O         -1.47800        0.24041        1.27116
O         -1.64432       -1.84901       -0.06823
H         -0.47920        0.16827        1.21877
H         -0.66783       -1.89010       -0.27678
N          0.44117        2.20081       -1.50502
H          0.46189        2.85042       -2.28508
H         -0.41020        1.61180       -1.53048
H          1.25055        1.54873       -1.52964
H          0.45139        2.69830       -0.56325
N          0.44901        3.05721        1.14305
H          0.83796        3.91288        1.52498
H          1.00889        2.27054        1.47210
H         -0.48175        2.93841        1.53477
