38
2sa2eda_165.log	Energy: -1117818.0797355
S          1.61529        0.56279       -1.75502
O          0.99257        1.56933       -0.82342
O          0.60242       -0.68941       -1.73447
O          1.76384        1.04360       -3.11116
O          2.82667       -0.01249       -1.12508
H          2.56054       -0.33416        0.47337
S         -2.65973       -0.76789       -0.27864
O         -2.33169       -0.03777        0.97389
O         -4.05248       -1.12363       -0.47205
O         -2.00951       -0.11194       -1.43969
O         -1.84777       -2.17675       -0.05309
H         -0.34657       -0.40852       -1.77103
H         -2.23564       -2.83013       -0.65072
H         -0.48899        4.01146        1.18606
H         -1.90268        3.27300        1.97464
H         -0.12446        2.57162        3.35643
H         -0.44742        1.18451        2.33354
H          1.46300        2.12983        0.92912
H          1.84273        3.01224        2.26801
H         -1.93909        2.88069       -0.40526
H         -0.47107        2.06459       -0.36210
C         -0.96755        3.06442        1.44890
C         -0.04948        2.20608        2.32886
N         -1.32037        2.34224        0.19750
N          1.36354        2.17794        1.94739
H         -1.80172        1.43911        0.44595
H          0.60462       -1.34942        2.47961
H          0.25377       -0.76661        0.83852
H          0.35420       -3.26035        0.90423
H          1.57817       -2.55920       -0.15417
H          2.04807       -3.79439        2.45199
H          2.92808       -3.90737        1.07955
H          2.12228        0.40867        1.92573
H          2.95927       -1.09679        1.92776
C          0.98152       -1.29356        1.45442
C          1.27919       -2.67548        0.89122
N          2.24983       -0.51712        1.46874
N          2.38407       -3.27213        1.65031
