38
2sa2eda_276.log	Energy: -1117798.0152269
S          0.40574        2.25264       -0.44865
O          0.09801        2.87748        0.83196
O          1.86251        2.08853       -0.70247
O         -0.34891        1.01188       -0.72697
O         -0.12349        3.24098       -1.61846
H          0.29086        4.10647       -1.49667
S          2.47707       -1.19265        0.20464
O          1.46091       -2.09830       -0.26965
O          2.22959       -0.51306        1.47492
O          3.80880       -2.06846        0.32672
O          2.93063       -0.16404       -0.86424
H          4.54652       -1.50412        0.60095
H          2.45231        0.76073       -0.78642
H         -1.36513       -0.03808        3.52667
H         -0.81231        1.41236        2.62842
H         -3.36038        1.19032        2.74897
H         -2.69657        1.30481        1.12153
H         -4.13459       -0.88997        2.19427
H         -3.58809       -0.62626        0.63625
H          0.35222       -0.60596        1.89120
H         -1.15045       -1.27269        1.47805
C         -1.35110        0.46586        2.55727
C         -2.76255        0.65720        2.00287
N         -0.61560       -0.40732        1.60773
N         -3.33630       -0.63322        1.62947
H         -0.55127        0.05788        0.67376
H         -0.73796       -1.42462       -1.43708
H         -1.17865       -2.81040       -2.42720
H         -2.43301       -0.98012       -3.24264
H         -3.57823       -2.01543       -2.36495
H         -2.35127        0.43509       -1.31577
H         -3.91409        0.25059       -1.74696
H         -1.18134       -3.40587       -0.09771
H         -2.43573       -2.36876        0.19540
C         -1.55584       -2.12556       -1.66071
C         -2.72218       -1.34294       -2.24582
N         -1.97392       -2.92956       -0.51350
N         -3.11591       -0.23894       -1.35398
