38
2sa2eda_288.log	Energy: -1117796.2276595
S          0.23441       -1.96633        0.25124
O         -0.75337       -3.01139        0.48669
O          1.46507       -2.39642       -0.44810
O         -0.35899       -0.75597       -0.39847
O          0.68524       -1.48514        1.71715
H         -2.00059       -0.97780       -0.45405
H          1.35375       -0.77605        1.60520
S          3.22539        0.58649       -0.29512
O          4.51108        1.23076       -0.25952
O          2.37305        0.55094        0.88059
O          2.31427        1.33238       -1.40171
O          3.41406       -0.84069       -0.88353
H          2.87287        1.54677       -2.16280
H          2.60060       -1.45226       -0.72701
H         -4.80523       -0.81768        0.56614
H         -3.36466        0.03943        1.21275
H         -4.75407        1.53137       -0.29278
H         -3.10872        1.28790       -0.89127
H         -5.54772        0.11215       -2.00188
H         -4.25192        0.74828       -2.77203
H         -2.85506       -2.20241        0.20704
H         -3.36752       -1.53953       -1.26056
C         -3.86241       -0.32665        0.30879
C         -4.06908        0.78587       -0.71539
N         -2.98178       -1.34078       -0.32972
N         -4.53758        0.19586       -1.97294
H          0.36262        2.85993        0.96565
H         -0.86634        4.00434        0.39433
H         -1.61738        3.03404        2.49286
H         -2.66255        2.52817        1.17096
H         -1.01413        0.48686        1.23598
H         -0.83056        0.94314        2.77816
H         -0.34466        2.75638       -1.45017
H         -0.34680        1.33503       -0.68490
C         -0.65843        2.94123        0.56149
C         -1.65385        2.41245        1.59185
N         -0.81719        2.23791       -0.71775
N         -1.45621        1.01502        1.98401
