34
2sa2dma_03.log	Energy: -1048356.5032884
S         -2.51875        0.02107       -0.23404
O         -2.17191        1.29831       -0.89946
O         -2.21298       -1.15765       -1.07681
O         -2.03507       -0.08872        1.14045
O         -4.13693        0.04028       -0.07866
H         -4.52350        0.09484       -0.96316
S          2.54885       -0.02419       -0.21505
O          2.69552       -1.03139       -1.26243
O          2.41977        1.36576       -0.70789
O          1.52573       -0.34246        0.80716
O          3.92324       -0.05423        0.66138
H          4.66594        0.03746        0.04941
N         -0.11858       -2.44542        0.17067
C         -0.69307       -3.01396        1.40928
C          0.61784       -3.41369       -0.66981
H         -0.89176       -2.01139       -0.38025
H          0.11521       -3.39125        2.03756
H         -1.23825       -2.21948        1.91902
H         -1.37483       -3.82472        1.14724
H          1.41539       -3.86517       -0.07807
H         -0.07425       -4.18215       -1.01788
H          1.06096       -2.87832       -1.50875
H          0.51772       -1.65614        0.42593
N          0.06488        2.51067        0.10897
C          0.06340        3.88352       -0.43476
C         -0.00995        2.43607        1.58566
H         -0.74911        1.99324       -0.29385
H          0.92081        4.42823       -0.03685
H          0.13544        3.82796       -1.52085
H         -0.86442        4.38241       -0.15141
H          0.85857        2.94227        2.00994
H         -0.93336        2.91092        1.91959
H         -0.01007        1.38480        1.86800
H          0.93563        2.02878       -0.20983
