34
2sa2dma_01.log	Energy: -1048358.1409751
S         -2.63308       -0.17164        0.11871
O         -2.50912       -1.49103        0.77498
O         -2.93393        0.93986        1.01846
O         -1.50852        0.09054       -0.81120
O         -3.89035       -0.30250       -0.91016
H         -4.69313       -0.42413       -0.38527
S          2.63308        0.17161       -0.11871
O          2.93400       -0.93989       -1.01842
O          2.50904        1.49098       -0.77499
O          1.50852       -0.09060        0.81122
O          3.89031        0.30255        0.91018
H          4.69311        0.42410        0.38530
N          0.06314       -2.31122        0.10436
C          0.68646       -3.34357        0.95605
C          0.13629       -2.59459       -1.34797
H         -0.92822       -2.15173        0.37969
H          1.74409       -3.41804        0.69964
H          0.58223       -3.04630        1.99939
H          0.18963       -4.30090        0.79111
H          1.18514       -2.60872       -1.64599
H         -0.34396       -3.55418       -1.54673
H         -0.38958       -1.79387       -1.86689
H          0.54953       -1.40836        0.29946
N         -0.06313        2.31123       -0.10432
C         -0.68641        3.34345       -0.95617
C         -0.13629        2.59483        1.34797
H         -0.54955        1.40836       -0.29929
H         -0.18954        4.30079       -0.79138
H         -0.58219        3.04600       -1.99945
H         -1.74404        3.41799       -0.69976
H          0.34393        3.55447        1.54660
H         -1.18514        2.60897        1.64599
H          0.38960        1.79421        1.86701
H          0.92823        2.15168       -0.37964
