22
2sa2a_12.log	Energy: -949705.5466387
S         -1.57147        0.50667       -0.11256
O         -1.66303        1.82853       -0.76489
O         -1.08539       -0.58333       -0.99687
O         -0.73123        0.60149        1.12208
O         -3.03009        0.12974        0.30732
H         -3.13044       -0.89939        0.34408
S          2.24811       -0.55758       -0.01696
O          3.52417       -1.19755        0.09907
O          2.20522        0.88577       -0.28961
O          1.43176       -1.29704       -1.14046
O          1.42796       -0.82887        1.30125
H          0.47902       -0.98040       -1.16517
H          0.56223       -0.31048        1.29319
N          0.54479        2.97757        0.20835
H         -0.36058        2.68581       -0.25927
H          0.36614        3.04017        1.20871
H          1.22802        2.20169        0.04527
H          0.90010        3.85812       -0.15349
N         -3.14374       -2.48818        0.23841
H         -2.87059       -2.97564        1.08582
H         -2.42727       -2.65192       -0.46531
H         -4.01543       -2.88908       -0.09199
