38
2sa2eda_179.log	Energy: -1117816.5215040
S          1.60771       -1.85743        0.00867
O          1.91828       -3.20636        0.41708
O          0.28219       -1.33601        0.48343
O          2.67201       -0.85449        0.29364
O          1.46628       -1.90640       -1.59890
H          2.65943        0.68507       -0.34543
H          1.06720       -1.07062       -1.92737
S         -1.09406        0.79791       -1.58343
O         -2.08521        1.34176       -2.48158
O          0.26836        0.58319       -2.16778
O         -0.96292        1.51937       -0.27836
O         -1.61613       -0.67827       -1.20287
H         -1.25775        0.63258        1.06187
H         -0.91661       -1.11118       -0.63717
H         -3.26576       -0.01415        3.17190
H         -3.05092        1.54456        2.32755
H         -4.93611        0.14714        1.34611
H         -3.66700        0.51606        0.17926
H         -4.34361       -2.07674        1.19572
H         -3.42338       -1.65844       -0.11303
H         -0.94723        0.18416        2.66119
H         -1.60072       -0.91586        1.60756
C         -2.99956        0.45902        2.22347
C         -3.89090       -0.05183        1.08682
N         -1.60515        0.07562        1.89312
N         -3.61013       -1.46506        0.86379
H          1.01002        1.16891        1.50071
H          1.40199        2.69640        2.31449
H          1.10982        3.12974       -0.04160
H          2.84264        3.31584        0.37477
H          1.51982        1.34886       -1.33554
H          3.08570        1.93532       -1.39166
H          3.09264        1.46587        3.16399
H          3.13696        0.40752        1.90178
C          1.78959        1.93141        1.63388
C          2.01249        2.61312        0.28874
N          3.03479        1.38651        2.15753
N          2.35932        1.60415       -0.76209
