38
2sa2eda_14.log	Energy: -1117826.2512705
S         -0.85396        2.12660       -0.41452
O         -2.10035        1.39029       -0.71489
O         -0.57618        2.31645        1.00945
O          0.29864        1.62574       -1.19900
O         -1.10892        3.64099       -0.94264
H         -1.27298        3.60432       -1.89480
S          1.00033       -1.90834       -0.54022
O          2.16282       -2.73544       -0.27412
O         -0.12699       -2.57038       -1.23054
O          0.49484       -1.13380        0.63875
O          1.56596       -0.76298       -1.54329
H          1.35563        0.21595        1.00037
H          0.96666        0.01909       -1.53920
H         -2.70599       -2.51702        1.22916
H         -1.72694       -1.06068        1.48907
H         -4.03916       -0.78401        2.46778
H         -3.72593        0.37091        1.16500
H         -5.43354       -1.99687        0.98802
H         -5.72092       -0.47210        0.46892
H         -1.60892       -1.88629       -0.80490
H         -3.29517       -1.57853       -0.92577
C         -2.61991       -1.45106        1.00108
C         -3.88158       -0.68927        1.38589
N         -2.42064       -1.31776       -0.46272
N         -5.00168       -1.17637        0.57708
H         -2.22958       -0.31635       -0.68065
H          3.67673        1.72184        2.11881
H          2.89034        0.29727        2.85131
H          4.99985       -0.26414        1.51277
H          3.55870       -1.12237        0.96508
H          5.10151        0.67040       -0.55585
H          3.73328       -0.13408       -1.01280
H          1.29818        1.78599        1.54676
H          2.20975        1.40851        0.21445
C          3.16482        0.77901        1.91063
C          4.02663       -0.13398        1.02955
N          1.93363        1.08498        1.15193
N          4.14700        0.45928       -0.30062
