22
2sa2a_20.log	Energy: -949702.7051252
S          2.13517       -0.42231        0.04547
O          1.58036       -1.88822       -0.03540
O          3.54717       -0.45319       -0.18927
O          1.45502        0.31271       -1.18477
O          1.62414        0.19913        1.27222
H          0.45498        0.29121       -1.09469
H          0.42545        1.40051        1.48921
S         -1.90194       -0.71364       -0.19931
O         -3.11853       -1.09498       -0.87925
O         -1.11980        0.39179       -0.81348
O         -2.38307        0.05832        1.19730
O         -1.03849       -1.81565        0.25928
H         -3.04934       -0.48474        1.63923
H          0.59269       -1.91138        0.13487
N         -0.21986        3.16750       -1.05557
H         -0.40985        4.12170       -1.34363
H         -0.90037        2.55463       -1.50181
H          0.69213        2.90841       -1.42490
N         -0.36161        2.08292        1.50150
H         -1.23137        1.53680        1.55485
H         -0.33487        2.61787        0.57595
H         -0.27527        2.70781        2.29782
