38
2sa2eda_37.log	Energy: -1117822.2947982
S          1.92855       -1.87463       -0.37887
O          0.78162       -2.36319       -1.15357
O          2.64939       -0.75890       -1.03403
O          1.62464       -1.62138        1.04189
O          3.00563       -3.09154       -0.30367
H          3.23757       -3.33902       -1.20902
S         -1.98601        1.74371       -0.34995
O         -1.01830        2.32144       -1.30547
O         -3.05878        0.96601       -0.96988
O         -1.31824        1.08004        0.79111
O         -2.70119        3.01322        0.38142
H         -3.25173        3.46090       -0.27521
H         -2.22515       -3.34017        1.47980
H         -2.36235       -1.91890        2.54673
H         -4.45511       -2.34876        1.14303
H         -3.75703       -0.74182        0.92748
H         -4.04705       -2.70642       -1.07547
H         -3.45430       -1.16368       -1.20243
H         -0.24306       -1.90056        1.24246
H         -1.13564       -1.97032       -0.14135
C         -2.34161       -2.25409        1.50724
C         -3.59155       -1.80822        0.74118
N         -1.16245       -1.66105        0.84085
N         -3.40050       -2.03567       -0.68530
H         -1.22559       -0.61921        0.82965
H          1.24689        2.66520        1.18238
H          1.30136        0.89162        1.22961
H          3.39610        1.87469        2.21126
H          3.71300        0.89074        0.77618
H          3.76681        3.81700        0.89229
H          4.86168        2.79035        0.24064
H          0.62960        1.94488       -0.95830
H          2.24984        2.45030       -1.05115
C          1.77149        1.78123        0.81177
C          3.26169        1.82438        1.12375
N          1.61079        1.74631       -0.66538
N          3.87211        2.93944        0.39456
H          1.91553        0.80914       -1.00667
