38
2sa2eda_155.log	Energy: -1117817.0054016
S          0.26382        2.10963       -0.67765
O         -1.03168        2.35324       -1.31037
O          0.19366        1.82609        0.76993
O          1.12068        1.15497       -1.42033
O          1.09000        3.51650       -0.70654
H          1.10458        3.82730       -1.62189
S         -0.21873       -2.14931       -0.72772
O          0.02232       -3.57159       -0.87492
O         -1.59192       -1.66647       -0.98707
O          0.25424       -1.58090        0.58673
O          0.75232       -1.47207       -1.82049
H          1.77964       -1.65314        0.66045
H          0.72502       -0.48437       -1.74253
H         -3.39889        1.84532        1.24148
H         -3.06506        1.45978       -0.45628
H         -5.37452        0.68920        0.19377
H         -4.33524       -0.67605       -0.22586
H         -5.17056        0.08001        2.46810
H         -5.10876       -1.40341        1.77849
H         -1.24276        0.80630        1.03894
H         -2.32287       -0.26755        1.79602
C         -3.27918        1.02976        0.52281
C         -4.49644        0.11403        0.51423
N         -2.10117        0.23049        0.93051
N         -4.64151       -0.50691        1.83277
H         -1.89382       -0.49568        0.20407
H          4.50158       -0.63398       -0.12057
H          2.91624       -0.16622       -0.80876
H          3.72606        1.53954        0.83715
H          2.20400        0.80137        1.31425
H          4.82103        0.28927        2.51978
H          3.37232        0.51063        3.24108
H          3.08255       -2.52517        0.03959
H          3.21744       -1.84251        1.57269
C          3.44509       -0.45298        0.09932
C          3.27189        0.60382        1.18232
N          2.85859       -1.71771        0.61817
N          3.82917        0.09246        2.43974
