22
2sa2a_06.log	Energy: -949710.1218353
S         -2.20986       -0.08831       -0.12592
O         -1.38204        0.14685        1.10796
O         -2.32071       -1.54429       -0.36970
O         -3.42689        0.69043       -0.19278
O         -1.29058        0.52441       -1.31919
H         -0.41891        0.06633       -1.33747
S          2.10197        0.04994       -0.06352
O          1.94592        1.51423       -0.19138
O          2.05030       -0.48922        1.28886
O          1.20681       -0.68025       -1.01222
O          3.60944       -0.26551       -0.55716
H          3.75090        0.16382       -1.41231
N         -0.38204        2.55886        0.73455
H         -0.32820        3.24517        1.48127
H         -0.93013        2.91746       -0.04606
H          0.57038        2.28606        0.39196
H         -0.84144        1.64834        1.05453
N         -0.04944       -2.45134        0.70762
H          0.13323       -1.80182        1.47838
H          0.13291       -3.41167        0.98132
H         -1.03578       -2.29024        0.36443
H          0.57568       -2.13519       -0.05539
