34
2sa2dma_36.log	Energy: -1048353.2432826
S          0.43412       -1.59258        0.12309
O         -0.54329       -2.56433       -0.42443
O          0.85901       -0.61186       -0.98259
O         -0.26785       -0.77340        1.19233
O          1.66331       -2.22399        0.66285
H          3.00332       -1.08223        0.48734
S         -0.75026        2.25842       -0.02195
O         -2.03604        1.55911       -0.14413
O         -0.75088        3.69328        0.03748
O          0.00347        1.68841        1.22982
O          0.16009        1.82345       -1.23569
H         -0.09650        0.64393        1.26624
H          0.34730        0.82343       -1.18726
N         -2.81717       -1.10520       -0.16112
C         -3.40681       -1.40160        1.16181
C         -3.76383       -1.17083       -1.29079
H         -2.40532       -0.15231       -0.12354
H         -3.83620       -2.40444        1.14619
H         -2.60502       -1.34757        1.89776
H         -4.17902       -0.66382        1.38514
H         -4.19077       -2.17318       -1.34859
H         -4.55467       -0.43393       -1.14276
H         -3.22461       -0.94736       -2.21121
H         -2.00380       -1.75593       -0.32134
N          3.34917       -0.28633       -0.09645
C          4.60099       -0.64464       -0.78767
C          3.39242        0.96589        0.69046
H          2.53584       -0.24411       -0.75451
H          5.40069       -0.75404       -0.05347
H          4.45034       -1.58851       -1.31155
H          4.85964        0.13955       -1.50057
H          4.12795        0.86597        1.48984
H          3.66429        1.79206        0.03193
H          2.40147        1.15158        1.10734
