22
2sa2a_32.log	Energy: -949698.1596161
S          1.95450       -0.53056       -0.03000
O          1.08661       -1.51925       -0.72974
O          2.34409        0.62863       -0.81779
O          1.41803       -0.21047        1.31391
O          3.34323       -1.32272        0.20640
H          3.13919       -2.19851        0.56192
S         -2.17116       -0.38943       -0.19800
O         -1.46104        0.77297       -0.69088
O         -3.55528       -0.62318       -0.51619
O         -1.38021       -1.69230       -0.45207
O         -2.06030       -0.18920        1.41938
H         -0.34557       -1.56358       -0.53695
H         -2.59724       -0.85774        1.86742
N          0.00164        2.10351        1.45114
H          0.16840        2.57220        0.48618
H         -0.97343        1.81417        1.52349
H          0.58526        1.23057        1.47728
H          0.24992        2.72160        2.21776
N          0.51086        2.95757       -1.09074
H          0.86378        3.85407       -1.40783
H         -0.30926        2.72016       -1.64208
H          1.21688        2.24361       -1.28618
