38
2sa2eda_150.log	Energy: -1117819.4871451
S         -1.47561       -1.93382        0.40231
O         -1.67314       -0.56710        0.97392
O         -1.82363       -1.99820       -1.01170
O         -0.16763       -2.50066        0.76927
O         -2.57803       -2.78799        1.23435
H         -2.48491       -3.71835        0.98617
S          2.65177       -0.55988       -0.58478
O          4.05558       -0.47603       -0.91202
O          1.70279       -0.48126       -1.72341
O          2.44601       -1.99734        0.08826
O          2.23364        0.43711        0.47293
H          1.48849       -2.18941        0.21134
H          1.06133        0.56486        1.46176
H         -1.24192        1.86331       -2.96898
H         -1.60397        0.12823       -2.82540
H         -3.65039        1.50210       -2.43747
H         -3.20136        0.49694       -1.05350
H         -2.76346        3.39017       -1.23878
H         -3.60710        2.55480       -0.11771
H          0.32394        0.39674       -1.53373
H         -0.19528        1.85464       -0.85812
C         -1.55726        1.07323       -2.28193
C         -2.90564        1.37172       -1.64009
N         -0.52486        0.94156       -1.22917
N         -2.79952        2.51295       -0.72879
H         -0.93626        0.42966       -0.43339
H          1.53117        3.21743        2.24970
H          0.13479        4.14020        1.69231
H         -0.74238        2.37995        3.03150
H         -1.14048        2.02144        1.34408
H          0.74035        0.62614        3.10685
H         -0.42984        0.04066        2.03526
H          1.35769        3.87660       -0.21092
H          1.76542        2.31392        0.09227
C          0.65462        3.18374        1.58497
C         -0.31905        2.11201        2.06064
N          1.01575        3.00466        0.17705
N          0.30508        0.76036        2.19692
