22
2sa2a_42.log	Energy: -949695.3588028
S          1.17036       -0.69571       -0.34138
O          0.04947       -1.50581       -0.85672
O          2.49133       -1.04033       -0.86189
O          0.93281        0.80845       -0.90470
O          1.15062       -0.57594        1.14066
H         -0.00067        1.06993       -0.73684
H          2.71934       -0.29078        1.57476
S         -2.73713        0.32667        0.05567
O         -4.13685        0.58957       -0.14499
O         -1.72859        1.26123       -0.41187
O         -2.44946        0.21469        1.63608
O         -2.43796       -1.11026       -0.47050
H         -3.16874       -0.28267        2.05120
H         -1.43684       -1.27704       -0.58574
N          3.76376       -0.12976        1.49880
H          4.14399       -0.96041        1.04744
H          4.20029        0.02984        2.40156
H          3.88697        0.69813        0.82064
N          3.76574        1.81364       -0.45551
H          4.19985        1.40206       -1.27746
H          4.08408        2.77469       -0.38411
H          2.76254        1.82085       -0.65166
