38
2sa2eda_190.log	Energy: -1117810.9229586
S          0.70558       -1.97900        0.21250
O          1.55808       -1.58931        1.35033
O         -0.73620       -1.79622        0.41254
O          1.17475       -1.39404       -1.06896
O          0.85126       -3.58059        0.07395
H          1.78957       -3.81087        0.12264
S          2.84852        1.41193        0.05311
O          3.83819        2.44475       -0.02752
O          1.43042        1.76951        0.05894
O          3.09793        0.40476       -1.13983
O          3.15278        0.55574        1.34369
H          2.39283       -0.30423       -1.15372
H          2.52466       -0.21350        1.41947
H         -1.30043        1.59730       -2.65462
H         -0.16974        0.23284       -2.51150
H         -2.19119       -0.53165       -3.64762
H         -2.02300       -1.32142       -2.07637
H         -3.87649        0.87945       -2.65124
H         -4.22883       -0.62668       -2.12615
H         -0.20640        1.27398       -0.44759
H         -1.90069        1.36113       -0.33048
C         -1.13898        0.61946       -2.19178
C         -2.23815       -0.36386       -2.56198
N         -1.08721        0.81387       -0.72476
N         -3.53462        0.11052       -2.08359
H         -1.08103       -0.10493       -0.25257
H         -4.54215        1.64967        2.19871
H         -4.81444        1.23127        0.49549
H         -4.28020       -0.75893        1.91498
H         -3.19142       -0.53418        0.55247
H         -2.53830       -0.06513        3.35508
H         -1.66912       -0.81924        2.17906
H         -3.34958        3.11930        0.65980
H         -2.30524        2.26112        1.59454
C         -4.05524        1.28522        1.28134
C         -3.48361       -0.11227        1.51838
N         -2.98523        2.18964        0.83925
N         -2.29952       -0.04692        2.37038
