40
2sa2tma_13.log	Energy: -1097670.9172502
S          0.84457        0.14610       -0.29045
O          1.41086        1.44068        0.17058
O          0.46706       -0.69668        0.89111
O         -0.39789        0.40329       -1.13277
O          1.84468       -0.59037       -1.14481
H          3.14227       -0.53582       -0.48571
S         -2.71558       -1.72868        0.05250
O         -3.74869       -2.72526       -0.02036
O         -3.02229       -0.41263        0.61101
O         -1.50213       -2.34217        0.84003
O         -2.15211       -1.51667       -1.41283
H         -0.72102       -1.69061        0.87915
H         -1.44375       -0.80393       -1.39850
N         -1.71870        2.41058        0.04316
C         -0.91927        3.56478       -0.43456
H          0.12752        3.36760       -0.20006
H         -1.04004        3.65131       -1.51498
H         -1.27440        4.47406        0.05648
C         -3.14179        2.50639       -0.36234
H         -3.19068        2.59591       -1.44844
H         -3.65001        1.59644       -0.04485
H         -3.58566        3.38945        0.10382
C         -1.56626        2.21178        1.50962
H         -2.09596        1.29984        1.78282
H         -0.50275        2.09849        1.72263
H         -1.97995        3.08105        2.02692
H         -1.29542        1.55580       -0.41986
N          4.10218       -0.44347        0.04627
C          4.60466        0.91800       -0.24542
H          4.77200        1.00745       -1.31950
H          3.83361        1.62860        0.05592
H          5.53916        1.09088        0.29569
C          3.79694       -0.61504        1.48731
H          3.09084        0.16122        1.78320
H          3.32579       -1.58719        1.63329
H          4.72222       -0.54425        2.06581
C          4.99954       -1.50042       -0.46147
H          4.53879       -2.47160       -0.27783
H          5.13410       -1.36491       -1.53516
H          5.96646       -1.44259        0.04574
