38
2sa2eda_132.log	Energy: -1117821.3941526
S          1.60842       -0.86294       -1.38962
O          1.60835       -1.47361       -0.01476
O          1.24898        0.58923       -1.25731
O          2.79891       -1.11253       -2.16640
O          0.39571       -1.55295       -2.16137
H         -0.39855       -1.59166       -1.55911
S         -1.71467       -1.25171        0.93825
O         -1.69524       -1.30038       -0.56414
O         -1.22715        0.07919        1.39183
O         -2.95467       -1.68316        1.54380
O         -0.60188       -2.32454        1.39463
H          0.19964       -2.20458        0.83697
H          2.58052        1.62321        3.11861
H          3.07129       -0.07644        2.87727
H          4.57795        1.62424        1.69730
H          3.88655        0.40899        0.62423
H          3.58818        3.14371        0.36099
H          2.70552        1.99692       -0.43596
H          0.60719        0.35781        2.40341
H          1.13593        1.33843        1.18243
C          2.70997        0.82685        2.38211
C          3.64293        1.27453        1.25165
N          1.39255        0.54031        1.77427
N          2.99499        2.33392        0.47878
H          1.45370       -0.27837        1.11681
H         -1.24619        2.11339        0.27309
H         -1.16152        3.26983       -1.08323
H         -3.32286        3.39788        0.18526
H         -3.56961        2.99578       -1.51556
H         -3.61057        0.99293        0.64369
H         -4.83521        1.40281       -0.37596
H         -0.34599        1.03724       -1.60475
H         -1.81621        0.36334       -1.21499
C         -1.66996        2.38473       -0.69485
C         -3.17348        2.60921       -0.56850
N         -1.37545        1.23515       -1.58788
N         -3.82949        1.34718       -0.28315
H         -1.71871        1.38128       -2.53547
