38
2sa2eda_191.log	Energy: -1117810.0754569
S         -2.52971       -0.93251       -0.58727
O         -3.01589       -0.37550        0.67618
O         -1.82230        0.04171       -1.43935
O         -1.82629       -2.22959       -0.43874
O         -3.83010       -1.29982       -1.48849
H         -4.23569       -2.09183       -1.11035
S          1.41372       -1.57945        0.72607
O          2.50463       -1.97102        1.59496
O          0.66708       -0.37545        1.06916
O          1.99421       -1.39715       -0.74381
O          0.44749       -2.77657        0.54482
H          2.90836       -0.93471       -0.64286
H         -0.46159       -2.49904        0.16719
H         -0.62214        3.88342        0.63841
H         -1.40378        3.51080       -0.92102
H         -3.04063        3.82160        1.01328
H         -3.18136        2.26029        0.19510
H         -2.66431        2.61605        2.88974
H         -2.55555        1.20745        2.03584
H          0.49051        1.97614       -0.42135
H         -0.34304        1.50148        0.96242
C         -1.22415        3.15040        0.09484
C         -2.53355        2.86789        0.83714
N         -0.45149        1.89386        0.02070
N         -2.24113        2.17307        2.08622
H         -0.96825        1.17028       -0.53327
H          4.05997        1.91107       -1.99135
H          3.33249        3.14796       -0.96661
H          4.69134        1.89515        0.48184
H          3.04728        1.33188        0.82742
H          4.98651       -0.09845       -0.86026
H          4.44708       -0.54437        0.62291
H          1.73587        2.05556       -2.45667
H          1.88609        0.66513       -1.62162
C          3.33800        2.07332       -1.17525
C          3.83613        1.34641        0.06868
N          1.97398        1.67791       -1.54433
N          4.18972       -0.05280       -0.23112
