40
2sa2tma_22.log	Energy: -1097664.7971190
S          1.91258       -0.78741        0.78091
O          3.17801       -1.31885        1.28680
O          0.71170       -1.09369        1.57157
O          2.01937        0.68486        0.49102
O          1.74464       -1.49094       -0.64957
H          3.40735        0.94049        0.02943
H          0.83204       -1.32509       -1.01219
S         -1.91219       -0.78657       -0.78120
O         -3.17768       -1.31724       -1.28776
O         -0.71138       -1.09201       -1.57230
O         -2.01881        0.68527       -0.48935
O         -1.74425       -1.49213        0.64831
H         -3.40820        0.94111       -0.03006
H         -0.83175       -1.32646        1.01125
N          4.42890        1.09431       -0.32714
C          4.71155       -0.01017       -1.27688
H          4.63258       -0.95391       -0.73727
H          3.95839        0.00600       -2.06491
H          5.71182        0.12033       -1.69854
C          4.45917        2.41467       -0.98860
H          3.73417        2.41556       -1.80324
H          4.18303        3.18017       -0.26272
H          5.46134        2.61159       -1.37841
C          5.31039        1.03395        0.86148
H          5.02634        1.83206        1.54844
H          5.15070        0.07040        1.34644
H          6.35216        1.15586        0.55266
N         -4.42950        1.09384        0.32724
C         -4.71041       -0.01116        1.27689
H         -4.63145       -0.95468        0.73691
H         -3.95644        0.00523        2.06413
H         -5.71033        0.11863        1.69960
C         -4.46018        2.41392        0.98930
H         -3.73396        2.41516        1.80285
H         -4.18592        3.18003        0.26335
H         -5.46197        2.60960        1.38070
C         -5.31210        1.03321       -0.86055
H         -5.02919        1.83163       -1.54762
H         -5.15231        0.06986       -1.34585
H         -6.35364        1.15445       -0.55067
