38
2sa2eda_221.log	Energy: -1117806.4556246
S         -0.39987        2.19649       -0.13928
O          0.95223        2.53470        0.29325
O         -0.43313        1.27494       -1.30957
O         -1.28910        1.75261        0.95273
O         -1.06560        3.53093       -0.76362
H         -1.09664        4.21118       -0.07626
S         -2.51545       -1.29018       -0.26391
O         -3.54032       -2.27586       -0.43801
O         -1.17689       -1.71459        0.15555
O         -2.37414       -0.49432       -1.62461
O         -3.04042       -0.21493        0.75850
H         -1.68309        0.22370       -1.55269
H         -2.37850        0.52449        0.88604
H          2.42232       -2.57242       -1.18945
H          1.26043       -2.08786       -2.43349
H          3.50528       -1.61125       -3.24960
H          2.65652       -0.09161       -2.96825
H          4.75864       -1.19746       -1.26348
H          4.64451        0.29568       -1.92067
H          0.50609       -1.30400       -0.32930
H          1.96797       -0.51862        0.05493
C          2.00886       -1.71567       -1.72952
C          3.10449       -0.95468       -2.46409
N          1.33364       -0.84524       -0.74488
N          4.10645       -0.46513       -1.52359
H          0.94525        0.00526       -1.18095
H          0.10602       -0.25456        1.98208
H          0.28012       -0.68033        3.68285
H          1.86795        1.04513        3.27304
H          2.79184       -0.46042        3.39506
H          2.34482        1.20845        1.08252
H          3.64753        0.28420        1.43776
H          0.23710       -2.61343        2.11986
H          1.74995       -2.19960        1.65669
C          0.78297       -0.72623        2.71118
C          2.06805        0.08650        2.78217
N          1.07760       -2.12690        2.41367
N          2.63429        0.29519        1.43366
