38
2sa2eda_24.log	Energy: -1117821.9792927
S         -1.96071        2.10527       -0.22327
O         -1.00352        2.77042       -1.10994
O         -2.82411        1.11138       -0.90111
O         -1.34885        1.58220        1.01858
O         -2.97540        3.24504        0.33851
H         -3.41733        3.64994       -0.42008
S          1.83537       -2.01019       -0.10396
O          2.72822       -1.45934        0.91512
O          0.97505       -3.11675        0.31489
O          1.08266       -0.94093       -0.83370
O          2.78299       -2.58439       -1.30355
H          3.22810       -3.37603       -0.97226
H         -1.17804       -2.40293        1.05631
H         -1.75439       -0.72832        1.29537
H         -3.52651       -2.40165        1.93501
H         -4.03272       -1.36934        0.59171
H         -3.10994       -4.14245        0.33294
H         -4.51006       -3.48097       -0.20184
H         -0.63396       -1.26426       -0.87540
H         -2.03753       -2.15131       -1.23732
C         -1.91057       -1.65575        0.74152
C         -3.33859       -2.16534        0.87969
N         -1.65346       -1.37016       -0.69578
N         -3.52927       -3.29383       -0.03329
H         -2.13389       -0.48323       -0.95997
H          2.34021        2.57260        1.85030
H          2.43946        0.78794        1.91271
H          4.60992        1.76938        1.17210
H          3.87717        0.73907       -0.05547
H          3.99462        3.66559       -0.11926
H          4.30382        2.59179       -1.31670
H          0.40397        1.67576        0.75517
H          1.43096        2.30374       -0.40408
C          2.47133        1.66120        1.26042
C          3.77196        1.69411        0.46701
N          1.33794        1.57482        0.31127
N          3.71401        2.77543       -0.51503
H          1.32575        0.65312       -0.17603
