28
2sa2ma_60.log	Energy: -999013.6389572
S          3.26514        0.09269       -0.40341
O          4.65863        0.39338       -0.59563
O          2.23549        1.00909       -0.86141
O          2.91948       -1.28083       -1.17044
O          3.05225       -0.26571        1.09766
H          3.64000       -1.91075       -1.02552
H          2.06413       -0.24149        1.36589
S         -0.56931       -0.09506        0.92570
O         -1.83521        0.18926        1.60434
O          0.61842       -0.10687        1.80422
O         -0.64090       -1.27835        0.03758
O         -0.38225        1.18724       -0.05513
H         -2.35358       -1.48906       -0.32690
H          0.53428        1.18149       -0.41281
N         -3.35616       -1.20302       -0.26722
H         -3.49310       -1.03450        0.73179
C         -4.30094       -2.17188       -0.84706
H         -5.32079       -1.80469       -0.72767
H         -4.08202       -2.28896       -1.90852
H         -4.19847       -3.13687       -0.35030
H         -3.38855       -0.22811       -0.73101
N         -3.17642        1.37197       -1.22153
H         -2.15988        1.46096       -1.17889
C         -3.76890        2.25645       -0.20468
H         -3.56108        3.31681       -0.38427
H         -4.85310        2.11353       -0.18017
H         -3.35416        1.98213        0.76766
H         -3.46717        1.64960       -2.15380
