34
2sa2dma_95.log	Energy: -1048332.2970792
S          2.63011        0.62010       -0.17443
O          3.93866        1.21621       -0.22383
O          1.90075        0.53504        1.08058
O          1.63811        1.51407       -1.11488
O          2.66066       -0.74526       -0.89068
H          2.14070        1.79691       -1.89245
H          1.71056       -1.22652       -0.84108
S         -0.33750       -2.26216        0.34229
O          0.38962       -1.66187       -0.83466
O          0.30498       -3.42711        0.90466
O         -0.33939       -1.06530        1.44453
O         -1.77636       -2.36317        0.03115
H          0.54161       -0.64006        1.47509
H         -2.21318       -0.80215       -0.36565
N         -1.95616        2.33005        0.97320
C         -1.39739        3.34955        0.08030
C         -1.05365        2.03164        2.09302
H         -2.83482        2.67440        1.35065
H         -0.48375        2.95667       -0.37527
H         -2.11425        3.58155       -0.71304
H         -1.14391        4.28129        0.60561
H         -0.09586        1.69120        1.69487
H         -0.87204        2.91235        2.72479
H         -1.47288        1.22761        2.70076
N         -2.49859        0.14406       -0.72412
C         -3.95543        0.12220       -0.95331
C         -1.70370        0.44855       -1.93469
H         -2.27338        0.87671        0.01080
H         -4.19348       -0.63669       -1.70008
H         -4.45575       -0.12513       -0.01670
H         -4.28654        1.10217       -1.30396
H         -1.82947       -0.35539       -2.66098
H         -2.04434        1.39659       -2.35691
H         -0.65288        0.51009       -1.65249
