34
2sa2dma_46.log	Energy: -1048349.5114524
S          1.13529       -0.10313        0.77012
O          2.25812       -0.52802        1.62640
O         -0.08716        0.31714        1.49387
O          1.55834        0.93933       -0.21275
O          0.77381       -1.40146       -0.06505
H          3.27890        0.50045       -0.59950
H         -0.14513       -1.28925       -0.49824
S         -2.79067       -1.07618       -0.26072
O         -3.63767       -2.16390       -0.68556
O         -1.51736       -0.89477       -1.03880
O         -3.46296        0.24824       -0.13541
O         -2.30168       -1.47481        1.22902
H         -2.39620        1.42460       -0.17292
H         -1.58079       -0.87311        1.50460
N          4.05386       -0.14893       -0.34192
C          5.35367        0.54530       -0.26764
C          4.01264       -1.32732       -1.24092
H          3.71001       -0.43599        0.60197
H          5.61989        0.92205       -1.25612
H          5.26987        1.37406        0.43525
H          6.11543       -0.15487        0.07755
H          4.23555       -1.01011       -2.26039
H          4.75005       -2.05741       -0.90551
H          3.01076       -1.75650       -1.18869
N         -1.56242        2.08693       -0.16033
C         -1.90582        3.33079        0.55178
C         -1.08315        2.27429       -1.54559
H         -0.85746        1.56238        0.38586
H         -2.72669        3.82705        0.03189
H         -2.21569        3.08007        1.56641
H         -1.03446        3.98742        0.58334
H         -1.84458        2.81551       -2.10999
H         -0.14442        2.82897       -1.53302
H         -0.93051        1.28535       -1.97676
